data/pglib_opf_case3375wp_k_storage.m
%%%%%%%%%%%%%%%%%%%%%%%%%%%%%%%%%%%%%%%%%%%%%%%%%%%%%%%%%%%%%%%%%%%%%%%%%%%
%%%%                                                                  %%%%%
%%%%    IEEE PES Power Grid Library - Optimal Power Flow - v23.07     %%%%%
%%%%          (https://github.com/power-grid-lib/pglib-opf)           %%%%%
%%%%               Benchmark Group - Typical Operations               %%%%%
%%%%                         23 - July - 2023                         %%%%%
%%%%                                                                  %%%%%
%%%%%%%%%%%%%%%%%%%%%%%%%%%%%%%%%%%%%%%%%%%%%%%%%%%%%%%%%%%%%%%%%%%%%%%%%%%
%
%   Power flow data for Polish system - winter 2007-08 evening peak.
%   Please see CASEFORMAT for details on the case file format.
%
%   This case represents the Polish 400, 220 and 110 kV networks during
%   winter 2007-08 evening peak conditions and includes some equivalents
%   of the German, Czech and Slovak networks.
%
%   Copyright (c) 2010 by Roman Korab <roman.korab@polsl.pl>
%   Licensed under the Creative Commons Attribution 4.0
%   International license, http://creativecommons.org/licenses/by/4.0/
%
% Modified to have additional storage capacity and increased gencost
function mpc = pglib_opf_case3375wp_k
mpc.version = '2';
mpc.baseMVA = 100.0;

%% bus data
%	bus_i	type	Pd	Qd	Gs	Bs	area	Vm	Va	baseKV	zone	Vmax	Vmin
mpc.bus = [
	10000	 1	 0.0	 0.0	 0.0	 0.0	 0	    1.00000	    0.00000	 400.0	 0	    1.05000	    0.95000;
	10001	 1	 0.0	 0.0	 0.0	 0.0	 0	    1.00000	    0.00000	 400.0	 0	    1.05000	    0.95000;
	10002	 1	 0.0	 0.0	 0.0	 0.0	 0	    1.03000	    0.00000	 220.0	 0	    1.11000	    0.95000;
	10003	 1	 0.0	 0.0	 0.0	 0.0	 0	    1.00000	    0.00000	 400.0	 0	    1.05000	    0.95000;
	10004	 1	 0.0	 0.0	 0.0	 0.0	 0	    1.00000	    0.00000	 400.0	 0	    1.05000	    0.95000;
	10005	 1	 0.0	 0.0	 0.0	 0.0	 0	    1.00000	    0.00000	 400.0	 0	    1.05000	    0.95000;
	10006	 1	 0.0	 0.0	 0.0	 0.0	 0	    1.00000	    0.00000	 400.0	 0	    1.05000	    0.95000;
	10007	 1	 0.0	 0.0	 0.0	 0.0	 0	    1.03000	    0.00000	 220.0	 0	    1.11000	    0.95000;
	10008	 1	 0.0	 0.0	 0.0	 0.0	 0	    1.03000	    0.00000	 220.0	 0	    1.11000	    0.95000;
	10009	 1	 0.0	 0.0	 0.0	 0.0	 0	    1.00000	    0.00000	 400.0	 0	    1.05000	    0.95000;
	10010	 1	 0.0	 0.0	 0.0	 0.0	 0	    1.00000	    0.00000	 400.0	 0	    1.05000	    0.95000;
	10011	 1	 0.0	 0.0	 0.0	 0.0	 0	    1.00000	    0.00000	 400.0	 0	    1.05000	    0.95000;
	10012	 1	 0.0	 0.0	 0.0	 0.0	 0	    1.00000	    0.00000	 400.0	 0	    1.05000	    0.95000;
	10013	 1	 0.0	 0.0	 0.0	 0.0	 0	    1.00000	    0.00000	 400.0	 0	    1.05000	    0.95000;
	10014	 1	 0.0	 0.0	 0.0	 0.0	 0	    1.00000	    0.00000	 400.0	 0	    1.05000	    0.95000;
	10015	 1	 0.0	 0.0	 0.0	 0.0	 0	    1.00000	    0.00000	 400.0	 0	    1.05000	    0.95000;
	10016	 1	 0.0	 0.0	 0.0	 0.0	 0	    1.00000	    0.00000	 400.0	 0	    1.05000	    0.95000;
	10017	 1	 0.0	 0.0	 0.0	 0.0	 0	    1.00000	    0.00000	 400.0	 0	    1.05000	    0.95000;
	10018	 1	 0.0	 0.0	 0.0	 0.0	 0	    1.00000	    0.00000	 400.0	 0	    1.05000	    0.95000;
	10019	 1	 0.0	 0.0	 0.0	 0.0	 0	    1.00000	    0.00000	 400.0	 0	    1.05000	    0.95000;
	10020	 1	 0.0	 0.0	 0.0	 0.0	 0	    1.00000	    0.00000	 400.0	 0	    1.05000	    0.95000;
	10021	 1	 0.0	 0.0	 0.0	 0.0	 0	    1.03000	    0.00000	 220.0	 0	    1.11000	    0.95000;
	10022	 1	 0.0	 0.0	 0.0	 0.0	 0	    1.03000	    0.00000	 220.0	 0	    1.11000	    0.95000;
	10023	 1	 0.0	 0.0	 0.0	 0.0	 0	    1.00000	    0.00000	 400.0	 0	    1.05000	    0.95000;
	10024	 1	 0.0	 0.0	 0.0	 0.0	 0	    1.00000	    0.00000	 400.0	 0	    1.05000	    0.95000;
	10025	 1	 0.0	 0.0	 0.0	 0.0	 0	    1.00000	    0.00000	 400.0	 0	    1.05000	    0.95000;
	10026	 1	 0.0	 0.0	 0.0	 0.0	 0	    1.00000	    0.00000	 400.0	 0	    1.05000	    0.95000;
	10027	 1	 0.0	 0.0	 0.0	 0.0	 0	    1.00000	    0.00000	 400.0	 0	    1.05000	    0.95000;
	10028	 1	 0.0	 0.0	 0.0	 0.0	 0	    1.00000	    0.00000	 400.0	 0	    1.05000	    0.95000;
	10029	 1	 0.0	 0.0	 0.0	 0.0	 0	    1.00000	    0.00000	 400.0	 0	    1.05000	    0.95000;
	10030	 1	 0.0	 0.0	 0.0	 0.0	 0	    1.00000	    0.00000	 400.0	 0	    1.05000	    0.95000;
	10031	 1	 0.0	 0.0	 0.0	 0.0	 0	    1.03000	    0.00000	 220.0	 0	    1.11000	    0.95000;
	10032	 1	 0.0	 0.0	 0.0	 0.0	 0	    1.00000	    0.00000	 400.0	 0	    1.05000	    0.95000;
	10033	 1	 0.0	 0.0	 0.0	 0.0	 0	    1.00000	    0.00000	 400.0	 0	    1.05000	    0.95000;
	10034	 1	 0.0	 0.0	 0.0	 0.0	 0	    1.00000	    0.00000	 400.0	 0	    1.05000	    0.95000;
	10035	 1	 0.0	 0.0	 0.0	 0.0	 0	    1.03000	    0.00000	 220.0	 0	    1.11000	    0.95000;
	10036	 1	 0.0	 0.0	 0.0	 0.0	 0	    1.03000	    0.00000	 220.0	 0	    1.11000	    0.95000;
	10037	 1	 0.0	 0.0	 0.0	 0.0	 0	    1.00000	    0.00000	 400.0	 0	    1.05000	    0.95000;
	10038	 1	 0.0	 0.0	 0.0	 0.0	 0	    1.00000	    0.00000	 400.0	 0	    1.05000	    0.95000;
	10039	 1	 0.0	 0.0	 0.0	 0.0	 0	    1.00000	    0.00000	 400.0	 0	    1.05000	    0.95000;
	10040	 1	 0.0	 0.0	 0.0	 0.0	 0	    1.00000	    0.00000	 400.0	 0	    1.05000	    0.95000;
	10041	 1	 0.0	 0.0	 0.0	 0.0	 0	    1.00000	    0.00000	 400.0	 0	    1.05000	    0.95000;
	10042	 1	 0.0	 0.0	 0.0	 0.0	 0	    1.00000	    0.00000	 400.0	 0	    1.05000	    0.95000;
	10043	 1	 0.0	 0.0	 0.0	 0.0	 0	    1.03000	    0.00000	 220.0	 0	    1.11000	    0.95000;
	10044	 1	 0.0	 0.0	 0.0	 0.0	 0	    1.03000	    0.00000	 220.0	 0	    1.11000	    0.95000;
	10045	 1	 0.0	 0.0	 0.0	 0.0	 0	    1.03000	    0.00000	 220.0	 0	    1.11000	    0.95000;
	10046	 1	 0.0	 0.0	 0.0	 0.0	 0	    1.03000	    0.00000	 220.0	 0	    1.11000	    0.95000;
	10047	 1	 0.0	 0.0	 0.0	 0.0	 0	    1.00000	    0.00000	 400.0	 0	    1.05000	    0.95000;
	10048	 1	 0.0	 0.0	 0.0	 0.0	 0	    1.00000	    0.00000	 400.0	 0	    1.05000	    0.95000;
	10049	 1	 0.0	 0.0	 0.0	 0.0	 0	    1.00000	    0.00000	 400.0	 0	    1.05000	    0.95000;
	10050	 1	 0.0	 0.0	 0.0	 0.0	 0	    1.00000	    0.00000	 400.0	 0	    1.05000	    0.95000;
	10051	 1	 0.0	 0.0	 0.0	 0.0	 0	    1.03000	    0.00000	 220.0	 0	    1.11000	    0.95000;
	10052	 1	 0.0	 0.0	 0.0	 0.0	 0	    1.00000	    0.00000	 400.0	 0	    1.05000	    0.95000;
	10053	 1	 0.0	 0.0	 0.0	 0.0	 0	    1.03000	    0.00000	 220.0	 0	    1.11000	    0.95000;
	10054	 1	 0.0	 0.0	 0.0	 0.0	 0	    1.03000	    0.00000	 220.0	 0	    1.11000	    0.95000;
	10055	 1	 0.0	 0.0	 0.0	 0.0	 0	    1.03000	    0.00000	 220.0	 0	    1.11000	    0.95000;
	10056	 1	 0.0	 0.0	 0.0	 0.0	 0	    1.00000	    0.00000	 400.0	 0	    1.05000	    0.95000;
	10057	 1	 0.0	 0.0	 0.0	 0.0	 0	    1.00000	    0.00000	 400.0	 0	    1.05000	    0.95000;
	10058	 1	 0.0	 0.0	 0.0	 0.0	 0	    1.03000	    0.00000	 220.0	 0	    1.11000	    0.95000;
	10059	 1	 0.0	 0.0	 0.0	 0.0	 0	    1.00000	    0.00000	 400.0	 0	    1.05000	    0.95000;
	10060	 1	 0.0	 0.0	 0.0	 0.0	 0	    1.00000	    0.00000	 400.0	 0	    1.05000	    0.95000;
	10061	 1	 0.0	 0.0	 0.0	 0.0	 0	    1.00000	    0.00000	 400.0	 0	    1.05000	    0.95000;
	10062	 1	 0.0	 0.0	 0.0	 0.0	 0	    1.00000	    0.00000	 400.0	 0	    1.05000	    0.95000;
	10063	 1	 0.0	 0.0	 0.0	 0.0	 0	    1.00000	    0.00000	 400.0	 0	    1.05000	    0.95000;
	10064	 1	 0.0	 0.0	 0.0	 0.0	 0	    1.03000	    0.00000	 220.0	 0	    1.11000	    0.95000;
	10065	 1	 0.0	 0.0	 0.0	 0.0	 0	    1.00000	    0.00000	 400.0	 0	    1.05000	    0.95000;
	10066	 1	 0.0	 0.0	 0.0	 0.0	 0	    1.00000	    0.00000	 400.0	 0	    1.05000	    0.95000;
	10067	 1	 0.0	 0.0	 0.0	 0.0	 0	    1.03000	    0.00000	 220.0	 0	    1.11000	    0.95000;
	10068	 1	 0.0	 0.0	 0.0	 0.0	 0	    1.00000	    0.00000	 400.0	 0	    1.05000	    0.95000;
	10069	 1	 0.0	 0.0	 0.0	 0.0	 0	    1.03000	    0.00000	 220.0	 0	    1.11000	    0.95000;
	10070	 1	 0.0	 0.0	 0.0	 0.0	 0	    1.00000	    0.00000	 400.0	 0	    1.05000	    0.95000;
	10071	 2	 16.0	 8.0	 0.0	 0.0	 0	    1.03000	    0.00000	 220.0	 0	    1.11000	    0.95000;
	10072	 1	 0.0	 0.0	 0.0	 0.0	 0	    1.03000	    0.00000	 220.0	 0	    1.11000	    0.95000;
	10073	 1	 0.0	 0.0	 0.0	 0.0	 1	    1.03000	    0.00000	 220.0	 0	    1.11000	    0.95000;
	10074	 1	 0.0	 0.0	 0.0	 0.0	 0	    1.03000	    0.00000	 220.0	 0	    1.11000	    0.95000;
	10075	 1	 0.0	 0.0	 0.0	 0.0	 0	    1.03000	    0.00000	 220.0	 0	    1.11000	    0.95000;
	10076	 1	 0.0	 0.0	 0.0	 0.0	 0	    1.00000	    0.00000	 400.0	 0	    1.05000	    0.95000;
	10077	 1	 0.0	 0.0	 0.0	 0.0	 0	    1.00000	    0.00000	 400.0	 0	    1.05000	    0.95000;
	10078	 1	 305.5	 -14.0	 0.0	 0.0	 0	    1.00000	    0.00000	 400.0	 0	    1.05000	    0.95000;
	10079	 2	 -1529.6	 4542.9	 0.0	 0.0	 0	    1.00000	    0.00000	 400.0	 0	    1.05000	    0.95000;
	10080	 2	 -159.1	 -181.0	 0.0	 0.0	 0	    1.00000	    0.00000	 400.0	 0	    1.05000	    0.95000;
	10081	 1	 -1078.3	 -374.1	 0.0	 0.0	 0	    1.00000	    0.00000	 400.0	 0	    1.05000	    0.95000;
	10082	 1	 943.2	 310.2	 0.0	 0.0	 0	    1.00000	    0.00000	 400.0	 0	    1.05000	    0.95000;
	10083	 1	 97.0	 26.0	 0.0	 0.0	 0	    1.00000	    0.00000	 400.0	 0	    1.05000	    0.95000;
	10084	 1	 0.6	 160.0	 0.0	 0.0	 0	    1.00000	    0.00000	 400.0	 0	    1.05000	    0.95000;
	10085	 1	 161.6	 183.6	 0.0	 0.0	 0	    1.00000	    0.00000	 400.0	 0	    1.05000	    0.95000;
	10086	 1	 288.6	 221.6	 0.0	 0.0	 0	    1.00000	    0.00000	 400.0	 0	    1.05000	    0.95000;
	10087	 1	 0.0	 0.0	 0.0	 0.0	 0	    1.00000	    0.00000	 400.0	 0	    1.05000	    0.95000;
	10088	 1	 0.0	 0.0	 0.0	 0.0	 0	    1.03000	    0.00000	 220.0	 0	    1.11000	    0.95000;
	10089	 1	 0.0	 0.0	 0.0	 0.0	 0	    1.03000	    0.00000	 220.0	 0	    1.11000	    0.95000;
	10090	 2	 274.4	 279.6	 0.0	 0.0	 0	    1.00000	    0.00000	 400.0	 0	    1.05000	    0.95000;
	10091	 1	 94.2	 111.8	 0.0	 0.0	 0	    1.00000	    0.00000	 400.0	 0	    1.05000	    0.95000;
	10092	 1	 0.0	 0.0	 0.0	 0.0	 0	    1.03000	    0.00000	 220.0	 0	    1.11000	    0.95000;
	10093	 1	 0.0	 0.0	 0.0	 0.0	 0	    1.03000	    0.00000	 220.0	 0	    1.11000	    0.95000;
	10094	 2	 0.0	 0.0	 0.0	 0.0	 0	    1.00000	    0.00000	 400.0	 0	    1.05000	    0.95000;
	10095	 2	 4.4	 -2590.1	 0.0	 0.0	 0	    1.00000	    0.00000	 400.0	 0	    1.05000	    0.95000;
	10096	 1	 488.0	 79.1	 0.0	 0.0	 0	    1.00000	    0.00000	 400.0	 0	    1.05000	    0.95000;
	10097	 1	 601.0	 147.9	 0.0	 0.0	 0	    1.00000	    0.00000	 400.0	 0	    1.05000	    0.95000;
	10098	 1	 527.0	 265.1	 0.0	 0.0	 0	    1.00000	    0.00000	 400.0	 0	    1.05000	    0.95000;
	10099	 1	 0.0	 0.0	 0.0	 0.0	 0	    1.00000	    0.00000	 400.0	 0	    1.05000	    0.95000;
	10100	 2	 0.0	 0.0	 0.0	 0.0	 0	    1.00000	    0.00000	 400.0	 0	    1.05000	    0.95000;
	10101	 1	 0.0	 0.0	 0.0	 0.0	 0	    1.03000	    0.00000	 220.0	 0	    1.11000	    0.95000;
	10102	 1	 120.0	 25.0	 0.0	 0.0	 0	    1.03000	    0.00000	 220.0	 0	    1.11000	    0.95000;
	10103	 1	 0.0	 0.0	 0.0	 0.0	 0	    1.00000	    0.00000	 400.0	 0	    1.05000	    0.95000;
	10104	 2	 200.2	 48.7	 0.0	 0.0	 0	    1.00000	    0.00000	 400.0	 0	    1.05000	    0.95000;
	10105	 1	 0.0	 0.0	 0.0	 0.0	 0	    1.03000	    0.00000	 220.0	 0	    1.11000	    0.95000;
	10106	 1	 0.0	 0.0	 0.0	 0.0	 0	    1.00000	    0.00000	 400.0	 0	    1.05000	    0.95000;
	10107	 1	 0.0	 0.0	 0.0	 0.0	 0	    1.00000	    0.00000	 400.0	 0	    1.05000	    0.95000;
	10108	 1	 0.0	 0.0	 0.0	 0.0	 0	    1.00000	    0.00000	 400.0	 0	    1.05000	    0.95000;
	10109	 1	 0.0	 0.0	 0.0	 0.0	 0	    1.00000	    0.00000	 400.0	 0	    1.05000	    0.95000;
	10110	 1	 0.0	 0.0	 0.0	 0.0	 0	    1.00000	    0.00000	 400.0	 0	    1.05000	    0.95000;
	10111	 1	 0.0	 0.0	 0.0	 0.0	 0	    1.00000	    0.00000	 400.0	 0	    1.05000	    0.95000;
	10112	 1	 0.0	 0.0	 0.0	 0.0	 0	    1.03000	    0.00000	 220.0	 0	    1.11000	    0.95000;
	10113	 1	 0.0	 0.0	 0.0	 0.0	 0	    1.00000	    0.00000	 400.0	 0	    1.05000	    0.95000;
	10114	 1	 0.0	 0.0	 0.0	 0.0	 0	    1.03000	    0.00000	 220.0	 0	    1.11000	    0.95000;
	10115	 2	 0.0	 0.0	 0.0	 0.0	 0	    1.00000	    0.00000	 400.0	 0	    1.05000	    0.95000;
	10116	 2	 0.0	 0.0	 0.0	 0.0	 0	    1.00000	    0.00000	 400.0	 0	    1.05000	    0.95000;
	10117	 1	 0.0	 0.0	 0.0	 0.0	 0	    1.00000	    0.00000	 400.0	 0	    1.05000	    0.95000;
	10118	 2	 0.0	 0.0	 0.0	 0.0	 0	    1.00000	    0.00000	 400.0	 0	    1.05000	    0.95000;
	10119	 1	 0.0	 0.0	 0.0	 0.0	 0	    1.00000	    0.00000	 400.0	 0	    1.05000	    0.95000;
	10120	 1	 0.0	 0.0	 0.0	 0.0	 0	    1.00000	    0.00000	 400.0	 0	    1.05000	    0.95000;
	10121	 1	 80.0	 20.0	 0.0	 0.0	 0	    1.03000	    0.00000	 220.0	 0	    1.11000	    0.95000;
	10122	 1	 0.0	 0.0	 0.0	 0.0	 0	    1.03000	    0.00000	 220.0	 0	    1.11000	    0.95000;
	10123	 1	 0.0	 0.0	 0.0	 0.0	 0	    1.00000	    0.00000	 400.0	 0	    1.05000	    0.95000;
	10124	 1	 0.0	 0.0	 0.0	 0.0	 0	    1.00000	    0.00000	 400.0	 0	    1.05000	    0.95000;
	10125	 1	 0.0	 0.0	 0.0	 0.0	 0	    1.00000	    0.00000	 400.0	 0	    1.05000	    0.95000;
	10126	 2	 0.0	 0.0	 0.0	 0.0	 0	    1.00000	    0.00000	 400.0	 0	    1.05000	    0.95000;
	10127	 1	 0.0	 0.0	 0.0	 0.0	 0	    1.03000	    0.00000	 220.0	 0	    1.11000	    0.95000;
	10128	 1	 0.0	 0.0	 0.0	 0.0	 0	    1.03000	    0.00000	 220.0	 0	    1.11000	    0.95000;
	10129	 2	 0.2	 100.0	 0.0	 0.0	 0	    1.00000	    0.00000	 400.0	 0	    1.05000	    0.95000;
	10130	 1	 0.0	 0.0	 0.0	 0.0	 0	    1.00000	    0.00000	 400.0	 0	    1.05000	    0.95000;
	10131	 1	 0.0	 0.0	 0.0	 0.0	 0	    1.00000	    0.00000	 400.0	 0	    1.05000	    0.95000;
	10132	 2	 0.0	 0.0	 0.0	 0.0	 0	    1.00000	    0.00000	 400.0	 0	    1.05000	    0.95000;
	10133	 1	 0.0	 0.0	 0.0	 0.0	 0	    1.00000	    0.00000	 400.0	 0	    1.05000	    0.95000;
	10134	 1	 0.0	 0.0	 0.0	 0.0	 0	    1.00000	    0.00000	 400.0	 0	    1.05000	    0.95000;
	10135	 1	 0.0	 0.0	 0.0	 0.0	 0	    1.03000	    0.00000	 220.0	 0	    1.11000	    0.95000;
	10136	 1	 0.0	 0.0	 0.0	 0.0	 0	    1.03000	    0.00000	 220.0	 0	    1.11000	    0.95000;
	10137	 1	 0.0	 0.0	 0.0	 0.0	 0	    1.03000	    0.00000	 220.0	 0	    1.11000	    0.95000;
	10138	 1	 0.0	 0.0	 0.0	 0.0	 0	    1.00000	    0.00000	 400.0	 0	    1.05000	    0.95000;
	10139	 2	 0.0	 0.0	 0.0	 0.0	 0	    1.00000	    0.00000	 400.0	 0	    1.05000	    0.95000;
	10140	 2	 0.0	 0.0	 0.0	 0.0	 0	    1.00000	    0.00000	 400.0	 0	    1.05000	    0.95000;
	10141	 2	 0.0	 0.0	 0.0	 0.0	 0	    1.00000	    0.00000	 400.0	 0	    1.05000	    0.95000;
	10142	 1	 0.0	 0.0	 0.0	 0.0	 0	    1.00000	    0.00000	 400.0	 0	    1.05000	    0.95000;
	10143	 1	 0.0	 0.0	 0.0	 0.0	 0	    1.00000	    0.00000	 400.0	 0	    1.05000	    0.95000;
	10144	 1	 0.0	 0.0	 0.0	 0.0	 0	    1.00000	    0.00000	 400.0	 0	    1.05000	    0.95000;
	10145	 1	 0.0	 0.0	 0.0	 0.0	 0	    1.00000	    0.00000	 400.0	 0	    1.05000	    0.95000;
	10146	 2	 0.0	 0.0	 0.0	 0.0	 0	    1.03000	    0.00000	 220.0	 0	    1.11000	    0.95000;
	10147	 1	 0.0	 0.0	 0.0	 0.0	 0	    1.00000	    0.00000	 400.0	 0	    1.05000	    0.95000;
	10148	 1	 0.0	 0.0	 0.0	 0.0	 0	    1.03000	    0.00000	 220.0	 0	    1.11000	    0.95000;
	10149	 1	 0.0	 0.0	 0.0	 0.0	 0	    1.03000	    0.00000	 220.0	 0	    1.11000	    0.95000;
	10150	 2	 0.0	 0.0	 0.0	 0.0	 0	    1.00000	    0.00000	 400.0	 0	    1.05000	    0.95000;
	10151	 1	 0.0	 0.0	 0.0	 0.0	 0	    1.00000	    0.00000	 400.0	 0	    1.05000	    0.95000;
	10152	 1	 0.0	 0.0	 0.0	 0.0	 0	    1.00000	    0.00000	 400.0	 0	    1.05000	    0.95000;
	10153	 1	 0.0	 0.0	 0.0	 0.0	 0	    1.00000	    0.00000	 400.0	 0	    1.05000	    0.95000;
	10154	 1	 80.0	 20.0	 0.0	 0.0	 0	    1.03000	    0.00000	 220.0	 0	    1.11000	    0.95000;
	10155	 1	 0.0	 0.0	 0.0	 0.0	 0	    1.03000	    0.00000	 220.0	 0	    1.11000	    0.95000;
	10156	 1	 0.0	 0.0	 0.0	 0.0	 0	    1.00000	    0.00000	 400.0	 0	    1.05000	    0.95000;
	10157	 1	 0.0	 0.0	 0.0	 0.0	 0	    1.03000	    0.00000	 220.0	 0	    1.11000	    0.95000;
	10158	 1	 0.0	 0.0	 0.0	 0.0	 0	    1.00000	    0.00000	 400.0	 0	    1.05000	    0.95000;
	10159	 1	 0.0	 0.0	 0.0	 0.0	 0	    1.03000	    0.00000	 220.0	 0	    1.11000	    0.95000;
	10160	 1	 0.0	 0.0	 0.0	 0.0	 0	    1.03000	    0.00000	 220.0	 0	    1.11000	    0.95000;
	10161	 1	 0.0	 0.0	 0.0	 0.0	 0	    1.00000	    0.00000	 400.0	 0	    1.05000	    0.95000;
	10162	 1	 0.0	 0.0	 0.0	 0.0	 0	    1.03000	    0.00000	 220.0	 0	    1.11000	    0.95000;
	10163	 1	 0.0	 0.0	 0.0	 0.0	 0	    1.03000	    0.00000	 220.0	 0	    1.11000	    0.95000;
	10164	 1	 0.0	 0.0	 0.0	 0.0	 0	    1.00000	    0.00000	 400.0	 0	    1.05000	    0.95000;
	10165	 1	 0.0	 0.0	 0.0	 0.0	 0	    1.00000	    0.00000	 400.0	 0	    1.05000	    0.95000;
	10166	 1	 0.0	 0.0	 0.0	 0.0	 0	    1.03000	    0.00000	 220.0	 0	    1.11000	    0.95000;
	10167	 1	 0.0	 0.0	 0.0	 0.0	 0	    1.00000	    0.00000	 400.0	 0	    1.05000	    0.95000;
	10168	 1	 0.0	 0.0	 0.0	 0.0	 0	    1.00000	    0.00000	 400.0	 0	    1.05000	    0.95000;
	10169	 1	 0.0	 0.0	 0.0	 0.0	 0	    1.00000	    0.00000	 400.0	 0	    1.05000	    0.95000;
	10170	 1	 0.0	 0.0	 0.0	 0.0	 0	    1.00000	    0.00000	 400.0	 0	    1.05000	    0.95000;
	10171	 2	 -104.8	 -159.0	 0.0	 0.0	 0	    1.00000	    0.00000	 400.0	 0	    1.05000	    0.95000;
	10172	 1	 247.4	 -57.5	 0.0	 0.0	 0	    1.00000	    0.00000	 400.0	 0	    1.05000	    0.95000;
	10173	 1	 247.4	 -57.5	 0.0	 0.0	 0	    1.00000	    0.00000	 400.0	 0	    1.05000	    0.95000;
	10174	 1	 371.5	 403.5	 0.0	 0.0	 0	    1.00000	    0.00000	 400.0	 0	    1.05000	    0.95000;
	10176	 2	 -249.9	 162.6	 0.0	 0.0	 0	    1.00000	    0.00000	 400.0	 0	    1.05000	    0.95000;
	10177	 2	 -249.9	 162.6	 0.0	 0.0	 0	    1.00000	    0.00000	 400.0	 0	    1.05000	    0.95000;
	10178	 1	 52.5	 207.2	 0.0	 0.0	 0	    1.00000	    0.00000	 400.0	 0	    1.05000	    0.95000;
	10179	 1	 379.5	 54.6	 0.0	 0.0	 0	    1.00000	    0.00000	 400.0	 0	    1.05000	    0.95000;
	10180	 1	 73.6	 -95.6	 0.0	 0.0	 0	    1.03000	    0.00000	 220.0	 0	    1.11000	    0.95000;
	10181	 1	 73.6	 -95.6	 0.0	 0.0	 0	    1.03000	    0.00000	 220.0	 0	    1.11000	    0.95000;
	10182	 1	 107.2	 -44.4	 0.0	 0.0	 0	    1.00000	    0.00000	 400.0	 0	    1.05000	    0.95000;
	10183	 1	 86.0	 8.0	 0.0	 0.0	 0	    1.00000	    0.00000	 400.0	 0	    1.05000	    0.95000;
	10184	 1	 70.0	 49.0	 0.0	 0.0	 0	    1.03000	    0.00000	 220.0	 0	    1.11000	    0.95000;
	10185	 1	 0.0	 0.0	 0.0	 0.0	 0	    1.00000	    0.00000	 400.0	 0	    1.05000	    0.95000;
	10186	 2	 0.0	 0.0	 0.0	 0.0	 0	    1.03000	    0.00000	 220.0	 0	    1.11000	    0.95000;
	10187	 2	 0.0	 0.0	 0.0	 0.0	 0	    1.03000	    0.00000	 220.0	 0	    1.11000	    0.95000;
	10188	 2	 0.0	 0.0	 0.0	 0.0	 0	    1.00000	    0.00000	 400.0	 0	    1.05000	    0.95000;
	10189	 2	 10.2	 0.0	 0.0	 0.0	 0	    1.00000	    0.00000	 400.0	 0	    1.05000	    0.95000;
	10190	 2	 0.0	 0.0	 0.0	 0.0	 0	    1.00000	    0.00000	 400.0	 0	    1.05000	    0.95000;
	10191	 2	 0.0	 0.0	 0.0	 0.0	 0	    1.00000	    0.00000	 400.0	 0	    1.05000	    0.95000;
	10192	 2	 0.0	 0.0	 0.0	 0.0	 0	    1.03000	    0.00000	 220.0	 0	    1.11000	    0.95000;
	10193	 1	 0.0	 0.0	 0.0	 0.0	 0	    1.03000	    0.00000	 220.0	 0	    1.11000	    0.95000;
	10194	 2	 0.0	 0.0	 0.0	 0.0	 0	    1.00000	    0.00000	 400.0	 0	    1.05000	    0.95000;
	10195	 1	 0.0	 0.0	 0.0	 0.0	 0	    1.00000	    0.00000	 400.0	 0	    1.05000	    0.95000;
	10196	 2	 0.0	 0.0	 0.0	 0.0	 0	    1.00000	    0.00000	 400.0	 0	    1.05000	    0.95000;
	10197	 1	 295.0	 51.9	 0.0	 0.0	 0	    1.00000	    0.00000	 400.0	 0	    1.05000	    0.95000;
	10198	 1	 0.0	 0.0	 0.0	 0.0	 0	    1.00000	    0.00000	 400.0	 0	    1.05000	    0.95000;
	10199	 1	 308.0	 40.0	 0.0	 0.0	 0	    1.03000	    0.00000	 220.0	 0	    1.11000	    0.95000;
	10200	 1	 0.0	 0.0	 0.0	 0.0	 0	    1.03000	    0.00000	 220.0	 0	    1.11000	    0.95000;
...
];

%% generator data
%	bus	Pg	Qg	Qmax	Qmin	Vg	mBase	status	Pmax	Pmin
mpc.gen = [
	10071	 169.25	 0.0	 103.0	 -103.0	 1.03	 285.0	 1	 204.6	 133.9; % NG
	10079	 454.9	 1862.5	 4000	 -275.0	 1.0	 2031.0	 1	 549.9	 359.9; % COW
	10080	 9.6	 0.0	 6.0	 -6.0	 1.0	 119.0	 1	 11.6	 7.6; % NG
	10090	 518.7	 0.0	 314.0	 -314.0	 1.0	 806.0	 1	 627.0	 410.4; % COW
	10094	 700.7	 0.0	 424.0	 -424.0	 1.0	 970.0	 1	 847.0	 554.4; % COW
	10095	 681.65	 0.0	 621.0	 -621.0	 1.0	 1439.0	 1	 1241.5	 121.8; % NUC
	10100	 1601.6	 0.0	 968.0	 -968.0	 1.0	 2202.0	 1	 1936.0	 1267.2; % COW
	10104	 682.5	 0.0	 413.0	 -413.0	 1.0	 939.0	 1	 825.0	 540.0; % COW
	10115	 354.9	 0.0	 215.0	 -215.0	 1.0	 492.0	 1	 429.0	 280.8; % NG
	10116	 354.9	 0.0	 215.0	 -215.0	 1.0	 492.0	 1	 429.0	 280.8; % NG
	10118	 1365.0	 0.0	 825.0	 -825.0	 1.0	 1876.0	 1	 1650.0	 1080.0; % NG
	10126	 536.9	 0.0	 325.0	 -325.0	 1.0	 786.0	 1	 649.0	 424.8; % NG
	10129	 2093.0	 0.0	 1265.0	 -1265.0	 1.0	 2974.0	 1	 2530.0	 1656.0; % COW
	10132	 737.1	 0.0	 446.0	 -446.0	 1.0	 1014.0	 1	 891.0	 583.2; % COW
	10139	 819.0	 0.0	 495.0	 -495.0	 1.0	 1143.0	 1	 990.0	 648.0; % COW
	10140	 1228.5	 0.0	 743.0	 -743.0	 1.0	 1705.0	 1	 1485.0	 972.0; % COW
	10141	 1547.0	 0.0	 935.0	 -935.0	 1.0	 2125.0	 1	 1870.0	 1224.0; % COW
	10146	 145.6	 0.0	 88.0	 -88.0	 1.03	 224.0	 1	 176.0	 115.2; % NG
	10150	 254.8	 0.0	 154.0	 -154.0	 1.0	 427.0	 1	 308.0	 201.6; % NG
	10171	 106.95	 0.0	 65.0	 -65.0	 1.0	 715.0	 1	 129.3	 84.6; % NG
	10176	 241.4	 0.0	 146.0	 -146.0	 1.0	 346.0	 1	 291.8	 191.0; % NG
	10177	 241.4	 0.0	 146.0	 -146.0	 1.0	 346.0	 1	 291.8	 191.0; % NG
	10186	 438.65	 0.0	 268.0	 -268.0	 1.03	 618.0	 1	 534.6	 342.7; % NG
	10187	 438.65	 0.0	 268.0	 -268.0	 1.03	 618.0	 1	 534.6	 342.7; % NG
	10188	 439.55	 0.0	 266.0	 -266.0	 1.0	 618.0	 1	 531.3	 347.8; % NG
	10189	 412.65	 0.0	 272.0	 -272.0	 1.0	 620.0	 1	 542.3	 283.0; % NG
	10190	 486.05	 0.0	 301.0	 -301.0	 1.0	 683.0	 1	 600.6	 371.5; % COW
	10191	 485.15	 0.0	 300.0	 -300.0	 1.0	 682.0	 1	 599.5	 370.8; % COW
	10192	 179.55	 0.0	 124.0	 -124.0	 1.03	 281.0	 1	 247.5	 111.6; % NG
	10194	 103.9	 0.0	 72.0	 -72.0	 1.0	 184.0	 1	 143.0	 64.8; % NG
	10196	 136.5	 0.0	 83.0	 -83.0	 1.0	 215.0	 1	 165.0	 108.0; % NG
	10223	 62.75	 0.0	 63.0	 -63.0	 1.0	 189.0	 1	 125.5	 0.0; % NG
	10225	 175.3	 0.0	 137.0	 -137.0	 1.035	 333.0	 1	 272.8	 77.8; % NG
	10226	 87.7	 0.0	 71.0	 -71.0	 1.035	 198.0	 1	 140.8	 34.6; % NG
	10227	 14.55	 0.0	 9.0	 -9.0	 1.035	 191.0	 1	 17.6	 11.5; % NG
	10228	 23.65	 0.0	 15.0	 -15.0	 1.035	 135.0	 1	 28.6	 18.7; % NG
	10229	 50.05	 0.0	 31.0	 -31.0	 1.035	 85.0	 1	 60.5	 39.6; % NG
	10230	 0.05	 0.0	 1.0	 -1.0	 1.035	 132.0	 1	 0.1	 0.0; % PEL
	10232	 14.2	 0.0	 9.0	 -9.0	 1.035	 64.0	 1	 17.2	 11.2; % NG
	10233	 57.35	 0.0	 35.0	 -35.0	 1.035	 79.0	 1	 69.3	 45.4; % PEL
	10234	 4.55	 0.0	 3.0	 -3.0	 1.035	 115.0	 1	 5.5	 3.6; % NG
	10235	 36.4	 0.0	 22.0	 -22.0	 1.035	 83.0	 1	 44.0	 28.8; % NG
	10236	 151.05	 0.0	 92.0	 -92.0	 1.035	 219.0	 1	 182.6	 119.5; % NG
	10237	 63.7	 0.0	 39.0	 -39.0	 1.035	 121.0	 1	 77.0	 50.4; % COW
	10238	 78.25	 0.0	 48.0	 -48.0	 1.035	 179.0	 1	 94.6	 61.9; % COW
	10239	 79.15	 0.0	 48.0	 -48.0	 1.035	 109.0	 1	 95.7	 62.6; % NG
	10240	 0.05	 0.0	 1.0	 -1.0	 1.035	 128.0	 1	 0.1	 0.0; % NG
	10246	 184.75	 0.0	 112.0	 -112.0	 1.035	 262.0	 1	 223.3	 146.2; % NG
	10247	 129.2	 0.0	 79.0	 -79.0	 1.035	 215.0	 1	 156.2	 102.2; % NG
	10248	 154.7	 0.0	 94.0	 -94.0	 1.035	 241.0	 1	 187.0	 122.4; % NG
	10249	 161.8	 0.0	 98.0	 -98.0	 1.035	 225.0	 1	 195.6	 128.0; % NG
	10250	 473.2	 0.0	 286.0	 -286.0	 1.035	 650.0	 1	 572.0	 374.4; % COW
	10251	 473.2	 0.0	 286.0	 -286.0	 1.035	 650.0	 1	 572.0	 374.4; % COW
	10252	 473.2	 0.0	 286.0	 -286.0	 1.035	 650.0	 1	 572.0	 374.4; % COW
	10253	 237.5	 0.0	 144.0	 -144.0	 1.035	 341.0	 1	 287.1	 187.9; % NG
	10254	 433.15	 0.0	 262.0	 -262.0	 1.035	 598.0	 1	 523.6	 342.7; % NG
	10255	 152.9	 0.0	 93.0	 -93.0	 1.035	 210.0	 1	 184.8	 121.0; % NG
	10256	 354.9	 0.0	 215.0	 -215.0	 1.035	 489.0	 1	 429.0	 280.8; % COW
	10257	 177.45	 0.0	 108.0	 -108.0	 1.035	 250.0	 1	 214.5	 140.4; % NG
	10258	 163.8	 0.0	 99.0	 -99.0	 1.035	 230.0	 1	 198.0	 129.6; % NG
	10259	 358.55	 0.0	 217.0	 -217.0	 1.035	 519.0	 1	 433.4	 283.7; % NG
	10260	 537.8	 0.0	 326.0	 -326.0	 1.035	 741.0	 1	 650.1	 425.5; % NG
	10261	 765.55	 0.0	 476.0	 -476.0	 1.035	 1100.0	 1	 951.5	 579.6; % COW
	10262	 765.55	 0.0	 476.0	 -476.0	 1.035	 1100.0	 1	 951.5	 579.6; % COW
	10263	 85.55	 0.0	 52.0	 -52.0	 1.035	 121.0	 1	 103.4	 67.7; % NG
	10264	 354.9	 0.0	 215.0	 -215.0	 1.035	 489.0	 1	 429.0	 280.8; % COW
	10265	 354.9	 0.0	 215.0	 -215.0	 1.035	 496.0	 1	 429.0	 280.8; % NG
	10266	 4.55	 0.0	 3.0	 -3.0	 1.035	 72.0	 1	 5.5	 3.6; % PEL
	10267	 5.45	 0.0	 4.0	 -4.0	 1.035	 120.0	 1	 6.6	 4.3; % COW
	10268	 26.4	 0.0	 16.0	 -16.0	 1.035	 37.0	 1	 31.9	 20.9; % COW
	10269	 179.95	 0.0	 146.0	 -146.0	 1.035	 338.0	 1	 291.5	 68.4; % COW
	10270	 0.05	 0.0	 1.0	 -1.0	 1.035	 40.0	 1	 0.1	 0.0; % NG
	10271	 197.45	 0.0	 120.0	 -120.0	 1.035	 286.0	 1	 238.7	 156.2; % NG
	10272	 30.95	 0.0	 19.0	 -19.0	 1.035	 116.0	 1	 37.4	 24.5; % PEL
	10273	 209.3	 0.0	 127.0	 -127.0	 1.035	 321.0	 1	 253.0	 165.6; % COW
	10274	 143.35	 0.0	 113.0	 -113.0	 1.035	 317.0	 1	 225.5	 61.2; % COW
	10275	 65.8	 0.0	 55.0	 -55.0	 1.035	 125.0	 1	 110.0	 21.6; % COW
	10276	 135.6	 0.0	 82.0	 -82.0	 1.035	 189.0	 1	 163.9	 107.3; % NG
	10277	 101.9	 0.0	 62.0	 -62.0	 1.035	 225.0	 1	 123.2	 80.6; % NG
	10278	 163.8	 0.0	 99.0	 -99.0	 1.035	 233.0	 1	 198.0	 129.6; % NG
	10279	 163.8	 0.0	 99.0	 -99.0	 1.035	 233.0	 1	 198.0	 129.6; % NG
	10281	 3.65	 0.0	 3.0	 -3.0	 1.035	 20.0	 1	 4.4	 2.9; % NG
	10282	 172.7	 0.0	 144.0	 -144.0	 1.035	 357.0	 1	 287.1	 58.3; % NG
	10284	 594.7	 0.0	 386.0	 -386.0	 1.035	 919.0	 1	 771.1	 418.3; % COW
	10285	 0.05	 0.0	 1.0	 -1.0	 1.035	 132.0	 1	 0.1	 0.0; % PEL
	10288	 26.4	 0.0	 16.0	 -16.0	 1.035	 63.0	 1	 31.9	 20.9; % NG
	10289	 17.4	 0.0	 18.0	 -18.0	 1.035	 41.0	 1	 34.1	 0.7; % NG
	10290	 35.5	 0.0	 22.0	 -22.0	 1.035	 49.0	 1	 42.9	 28.1; % NG
	10291	 7.3	 0.0	 5.0	 -5.0	 1.035	 71.0	 1	 8.8	 5.8; % PEL
	10292	 394.95	 0.0	 239.0	 -239.0	 1.035	 638.0	 1	 477.4	 312.5; % COW
	10293	 24.55	 0.0	 15.0	 -15.0	 1.035	 46.0	 1	 29.7	 19.4; % PEL
	10294	 10.0	 0.0	 7.0	 -7.0	 1.035	 74.0	 1	 12.1	 7.9; % NG
	10295	 192.0	 0.0	 117.0	 -117.0	 1.035	 299.0	 1	 232.1	 151.9; % NG
	10296	 249.35	 0.0	 151.0	 -151.0	 1.035	 461.0	 1	 301.4	 197.3; % NG
	24	 165.5	 31.0	 111.0	 -49.0	 1.03	 235.3	 1	 221.0	 110.0; % NG
	25	 167.5	 39.0	 100.0	 -22.0	 1.03	 235.3	 1	 200.0	 135.0; % NG
	37	 305.0	 83.0	 185.0	 -19.0	 1.03	 426.0	 1	 370.0	 240.0; % NG
	37	 305.0	 83.0	 185.0	 -19.0	 1.03	 426.0	 1	 370.0	 240.0; % NG
	38	 305.0	 83.0	 185.0	 -19.0	 1.03	 426.0	 1	 370.0	 240.0; % NG
	38	 305.0	 83.0	 185.0	 -19.0	 1.03	 426.0	 1	 370.0	 240.0; % NG
	39	 305.0	 83.0	 185.0	 -19.0	 1.03	 426.0	 1	 370.0	 240.0; % NG
	40	 305.0	 83.0	 185.0	 -19.0	 1.0	 426.0	 1	 370.0	 240.0; % COW
	40	 305.0	 83.0	 185.0	 -19.0	 1.0	 426.0	 1	 370.0	 240.0; % NG
	40	 305.0	 83.0	 185.0	 -19.0	 1.0	 426.0	 1	 370.0	 240.0; % NG
	41	 305.0	 83.0	 185.0	 -19.0	 1.0	 426.0	 1	 370.0	 240.0; % COW
	41	 305.0	 83.0	 185.0	 -19.0	 1.0	 426.0	 1	 370.0	 240.0; % NG
	41	 305.0	 83.0	 185.0	 -19.0	 1.0	 426.0	 1	 370.0	 240.0; % NG
	57	 162.5	 37.5	 108.0	 -33.0	 1.03	 235.0	 1	 215.0	 110.0; % NG
	57	 172.5	 38.5	 110.0	 -33.0	 1.03	 235.0	 1	 220.0	 125.0; % NG
	58	 175.0	 40.0	 113.0	 -33.0	 1.03	 235.0	 1	 225.0	 125.0; % NG
	58	 0.0	 0.0	 113.0	 -33.0	 1.03	 235.0	 0	 225.0	 120.0; % NG
	58	 167.5	 40.0	 113.0	 -33.0	 1.03	 235.0	 1	 225.0	 110.0; % NG
	59	 167.5	 40.0	 113.0	 -33.0	 1.03	 235.0	 1	 225.0	 110.0; % NG
	60	 395.0	 110.5	 268.0	 -47.0	 1.0	 588.0	 1	 535.0	 255.0; % COW
	61	 405.0	 90.0	 280.0	 -100.0	 1.0	 588.0	 1	 560.0	 250.0; % COW
	70	 177.0	 47.0	 105.0	 -11.0	 1.03	 235.0	 1	 225.0	 129.0; % NG
	71	 177.0	 47.0	 105.0	 -11.0	 1.03	 235.0	 1	 225.0	 129.0; % NG
	71	 0.0	 0.0	 99.0	 -10.0	 1.03	 235.0	 0	 225.0	 129.0; % NG
	72	 0.0	 0.0	 105.0	 -11.0	 1.0	 235.0	 0	 225.0	 129.0; % NG
	72	 177.0	 47.0	 105.0	 -11.0	 1.0	 235.0	 1	 225.0	 129.0; % NG
	73	 177.0	 44.5	 99.0	 -10.0	 1.0	 235.0	 1	 225.0	 129.0; % COW
	73	 177.0	 47.0	 105.0	 -11.0	 1.0	 235.0	 1	 225.0	 129.0; % NG
	74	 56.0	 28.0	 56.0	 0.0	 1.03	 120.0	 1	 112.0	 0.0; % COW
	94	 172.5	 52.0	 110.0	 -6.0	 1.03	 270.6	 1	 220.0	 125.0; % NG
	94	 182.5	 53.5	 113.0	 -6.0	 1.03	 270.6	 1	 225.0	 140.0; % NG
	95	 177.5	 53.5	 113.0	 -6.0	 1.03	 270.6	 1	 225.0	 130.0; % COW
	95	 175.0	 53.5	 113.0	 -6.0	 1.03	 270.6	 1	 225.0	 125.0; % NG
	95	 177.5	 53.5	 113.0	 -6.0	 1.03	 270.6	 1	 225.0	 130.0; % NG
	98	 301.5	 80.5	 192.0	 -31.0	 1.0	 426.0	 1	 383.0	 220.0; % NG
	98	 300.0	 44.0	 119.0	 -31.0	 1.0	 435.3	 1	 380.0	 220.0; % NG
	115	 6.0	 0.0	 0.0	 0.0	 1.03	 12.0	 1	 12.0	 0.0; % NG
	115	 3.0	 0.0	 0.0	 0.0	 1.03	 6.0	 1	 6.0	 0.0; % PEL
	121	 0.0	 0.0	 113.0	 -10.0	 1.03	 270.6	 0	 225.0	 120.0; % NG
	122	 172.5	 51.5	 113.0	 -10.0	 1.03	 270.6	 1	 225.0	 120.0; % NG
	123	 95.0	 29.5	 60.0	 -1.0	 1.03	 150.0	 1	 120.0	 70.0; % COW
	124	 95.0	 29.5	 60.0	 -1.0	 1.03	 150.0	 1	 120.0	 70.0; % NG
	134	 0.0	 0.0	 60.0	 0.0	 1.03	 150.0	 0	 120.0	 70.0; % COW
	135	 95.0	 30.0	 60.0	 0.0	 1.03	 150.0	 1	 120.0	 70.0; % NG
	136	 95.0	 15.5	 31.0	 0.0	 1.03	 117.5	 1	 110.0	 80.0; % COW
	144	 175.0	 36.5	 108.0	 -35.0	 1.03	 270.6	 1	 215.0	 135.0; % NG
	145	 175.0	 36.5	 108.0	 -35.0	 1.03	 270.6	 1	 215.0	 135.0; % NG
	145	 180.0	 39.0	 113.0	 -35.0	 1.03	 270.6	 1	 225.0	 135.0; % NG
	146	 180.0	 38.5	 113.0	 -36.0	 1.0	 270.6	 1	 225.0	 135.0; % NG
	146	 177.5	 37.0	 110.0	 -36.0	 1.0	 270.6	 1	 220.0	 135.0; % NG
	152	 0.0	 0.0	 68.0	 -29.0	 1.03	 150.0	 0	 135.0	 -135.0; % NG
	152	 0.0	 0.0	 68.0	 -29.0	 1.03	 150.0	 0	 135.0	 -135.0; % NG
	153	 0.0	 0.0	 68.0	 -29.0	 1.03	 150.0	 0	 135.0	 -135.0; % NG
	153	 0.0	 0.0	 68.0	 -29.0	 1.03	 150.0	 0	 135.0	 -135.0; % NG
	154	 107.0	 22.5	 60.0	 -15.0	 1.03	 150.0	 1	 120.0	 94.0; % NG
	155	 107.0	 22.5	 60.0	 -15.0	 1.03	 150.0	 1	 120.0	 94.0; % COW
	155	 0.0	 0.0	 60.0	 -15.0	 1.03	 150.0	 0	 120.0	 94.0; % COW
	169	 0.0	 0.0	 25.0	 0.0	 1.03	 51.4	 0	 50.0	 40.0; % NG
	170	 0.0	 0.0	 60.0	 -15.0	 1.03	 150.0	 0	 120.0	 80.0; % NG
	170	 0.0	 0.0	 25.0	 0.0	 1.03	 51.4	 0	 50.0	 45.0; % NG
	172	 166.0	 42.5	 116.0	 -31.0	 1.03	 252.4	 1	 232.0	 100.0; % NG
	172	 0.0	 0.0	 103.0	 -21.0	 1.03	 237.5	 0	 205.0	 135.0; % NG
	173	 0.0	 0.0	 103.0	 -21.0	 1.03	 237.5	 0	 205.0	 135.0; % NG
	173	 0.0	 0.0	 102.0	 -15.0	 1.03	 252.4	 0	 222.0	 90.0; % NG
	174	 156.0	 43.5	 102.0	 -15.0	 1.0	 252.4	 1	 222.0	 90.0; % NG
	175	 156.0	 43.5	 102.0	 -15.0	 1.0	 252.4	 1	 222.0	 90.0; % COW
	175	 166.0	 41.5	 93.0	 -10.0	 1.0	 252.4	 1	 232.0	 100.0; % NG
	180	 182.5	 46.0	 127.0	 -35.0	 1.03	 287.3	 1	 261.0	 104.0; % NG
	180	 182.5	 46.0	 127.0	 -35.0	 1.03	 287.3	 1	 261.0	 104.0; % NG
	181	 163.0	 43.0	 103.0	 -17.0	 1.03	 238.4	 1	 206.0	 120.0; % NG
	181	 182.5	 46.0	 127.0	 -35.0	 1.03	 287.3	 1	 261.0	 104.0; % NG
	182	 164.5	 40.0	 118.0	 -38.0	 1.03	 263.9	 1	 235.0	 94.0; % NG
	182	 164.5	 40.0	 118.0	 -38.0	 1.03	 263.9	 1	 235.0	 94.0; % NG
	183	 163.0	 43.0	 103.0	 -17.0	 1.0	 238.4	 1	 206.0	 120.0; % NG
	183	 163.0	 43.0	 103.0	 -17.0	 1.0	 238.4	 1	 206.0	 120.0; % NG
	191	 175.0	 38.5	 100.0	 -23.0	 1.03	 233.2	 1	 200.0	 150.0; % NG
	192	 175.0	 38.5	 100.0	 -23.0	 1.03	 233.2	 1	 200.0	 150.0; % COW
	192	 0.0	 0.0	 100.0	 -23.0	 1.03	 233.2	 0	 200.0	 145.0; % NG
	192	 0.0	 0.0	 100.0	 -23.0	 1.03	 233.2	 0	 200.0	 145.0; % NG
	193	 336.0	 0.0	 232.0	 -232.0	 1.0	 464.0	 1	 464.0	 208.0; % COW
	208	 132.0	 47.0	 94.0	 0.0	 1.03	 218.3	 1	 188.0	 76.0; % NG
	240	 -10.5	 14.0	 90.0	 -62.0	 1.0	 209.0	 1	 179.0	 -200.0; % NG
	240	 -10.5	 14.0	 90.0	 -62.0	 1.0	 209.0	 1	 179.0	 -200.0; % NG
	240	 0.0	 0.0	 90.0	 -90.0	 1.0	 209.0	 0	 179.0	 -200.0; % COW
	241	 -10.5	 0.0	 90.0	 -90.0	 1.0	 209.0	 1	 179.0	 -200.0; % NG
	244	 166.25	 50.0	 100.0	 0.0	 1.03	 177.1	 1	 220.0	 112.5; % NG
	254	 39.0	 10.0	 20.0	 0.0	 1.035	 78.8	 1	 55.0	 23.0; % NG
	254	 37.5	 10.0	 20.0	 0.0	 1.035	 68.8	 1	 50.0	 25.0; % NG
	254	 37.5	 10.0	 20.0	 0.0	 1.035	 68.8	 1	 50.0	 25.0; % NG
	254	 15.0	 6.0	 12.0	 0.0	 1.035	 27.6	 1	 23.0	 7.0; % COW
	267	 1.3	 0.5	 1.0	 0.0	 1.035	 0.7	 1	 2.1	 0.5; % PEL
	268	 1.3	 0.5	 1.0	 0.0	 1.035	 0.7	 1	 2.1	 0.5; % PEL
	278	 0.0	 0.0	 4.0	 0.0	 1.035	 10.3	 0	 7.2	 5.9; % PEL
	279	 0.0	 0.0	 4.0	 0.0	 1.035	 10.3	 0	 7.2	 5.9; % COW
	295	 3.0	 1.5	 3.0	 0.0	 1.035	 5.0	 1	 5.0	 1.0; % PEL
	295	 3.0	 1.5	 3.0	 0.0	 1.035	 5.0	 1	 5.0	 1.0; % COW
	295	 3.0	 1.5	 3.0	 0.0	 1.035	 5.0	 1	 5.0	 1.0; % NG
	295	 3.0	 1.5	 3.0	 0.0	 1.035	 5.0	 1	 5.0	 1.0; % NG
	310	 305.0	 83.0	 185.0	 -19.0	 1.035	 426.0	 1	 370.0	 240.0; % COW
	316	 0.0	 0.0	 2.0	 0.0	 1.035	 4.0	 0	 5.7	 1.0; % NG
	316	 0.0	 0.0	 2.0	 0.0	 1.035	 4.0	 0	 5.7	 1.0; % NG
	376	 6.0	 2.0	 4.0	 0.0	 1.035	 8.4	 1	 6.6	 5.4; % PEL
	379	 0.6	 0.5	 1.0	 0.0	 1.035	 0.9	 1	 0.9	 0.3; % PEL
	379	 0.6	 0.5	 1.0	 0.0	 1.035	 0.9	 1	 0.9	 0.3; % PEL
	379	 0.6	 0.5	 1.0	 0.0	 1.035	 0.9	 1	 0.9	 0.3; % PEL
	383	 19.0	 3.5	 7.0	 0.0	 1.035	 31.3	 1	 27.0	 11.0; % PEL
...
];

%% generator cost data
%	2	startup	shutdown	n	c(n-1)	...	c0
mpc.gencost = [
2	0.0	0.0	3	0.2	198.860000	0.000000;	%	NG
2	0.0	0.0	3	0.2	240.260000	0.000000;	%	COW
2	0.0	0.0	3	0.2	240.260000	0.000000;	%	NG
2	0.0	0.0	3	0.2	240.260000	0.000000;	%	COW
2	0.0	0.0	3	0.2	240.260000	0.000000;	%	COW
2	0.0	0.0	3	0.2	240.260000	0.000000;	%	NUC
2	0.0	0.0	3	0.2	240.260000	0.000000;	%	COW
2	0.0	0.0	3	0.2	240.260000	0.000000;	%	COW
2	0.0	0.0	3	0.2	240.260000	0.000000;	%	NG
2	0.0	0.0	3	0.2	240.260000	0.000000;	%	NG
2	0.0	0.0	3	0.2	240.260000	0.000000;	%	NG
2	0.0	0.0	3	0.2	240.260000	0.000000;	%	NG
2	0.0	0.0	3	0.2	240.260000	0.000000;	%	COW
2	0.0	0.0	3	0.2	240.260000	0.000000;	%	COW
2	0.0	0.0	3	0.2	240.260000	0.000000;	%	COW
2	0.0	0.0	3	0.2	240.260000	0.000000;	%	COW
2	0.0	0.0	3	0.2	240.260000	0.000000;	%	COW
2	0.0	0.0	3	0.2	240.260000	0.000000;	%	NG
2	0.0	0.0	3	0.2	240.260000	0.000000;	%	NG
2	0.0	0.0	3	0.2	240.260000	0.000000;	%	NG
2	0.0	0.0	3	0.2	240.260000	0.000000;	%	NG
2	0.0	0.0	3	0.2	240.260000	0.000000;	%	NG
2	0.0	0.0	3	0.2	236.700000	0.000000;	%	NG
2	0.0	0.0	3	0.2	236.700000	0.000000;	%	NG
2	0.0	0.0	3	0.2	236.700000	0.000000;	%	NG
2	0.0	0.0	3	0.2	236.700000	0.000000;	%	NG
2	0.0	0.0	3	0.2	236.700000	0.000000;	%	COW
2	0.0	0.0	3	0.2	236.700000	0.000000;	%	COW
2	0.0	0.0	3	0.2	236.700000	0.000000;	%	NG
2	0.0	0.0	3	0.2	236.700000	0.000000;	%	NG
2	0.0	0.0	3	0.2	236.700000	0.000000;	%	NG
2	0.0	0.0	3	0.2	100.000000	0.000000;	%	NG
2	0.0	0.0	3	0.2	198.860000	0.000000;	%	NG
2	0.0	0.0	3	0.2	198.860000	0.000000;	%	NG
2	0.0	0.0	3	0.2	198.860000	0.000000;	%	NG
2	0.0	0.0	3	0.2	198.860000	0.000000;	%	NG
2	0.0	0.0	3	0.2	198.860000	0.000000;	%	NG
2	0.0	0.0	3	0.2	198.860000	0.000000;	%	PEL
2	0.0	0.0	3	0.2	198.860000	0.000000;	%	NG
2	0.0	0.0	3	0.2	198.860000	0.000000;	%	PEL
2	0.0	0.0	3	0.2	198.860000	0.000000;	%	NG
2	0.0	0.0	3	0.2	198.860000	0.000000;	%	NG
2	0.0	0.0	3	0.2	198.860000	0.000000;	%	NG
2	0.0	0.0	3	0.2	198.860000	0.000000;	%	COW
2	0.0	0.0	3	0.2	198.860000	0.000000;	%	COW
2	0.0	0.0	3	0.2	198.860000	0.000000;	%	NG
2	0.0	0.0	3	0.2	198.860000	0.000000;	%	NG
2	0.0	0.0	3	0.2	198.860000	0.000000;	%	NG
2	0.0	0.0	3	0.2	198.860000	0.000000;	%	NG
2	0.0	0.0	3	0.2	198.860000	0.000000;	%	NG
2	0.0	0.0	3	0.2	198.860000	0.000000;	%	NG
2	0.0	0.0	3	0.2	198.860000	0.000000;	%	COW
2	0.0	0.0	3	0.2	198.860000	0.000000;	%	COW
2	0.0	0.0	3	0.2	198.860000	0.000000;	%	COW
2	0.0	0.0	3	0.2	198.860000	0.000000;	%	NG
2	0.0	0.0	3	0.2	198.860000	0.000000;	%	NG
2	0.0	0.0	3	0.2	198.860000	0.000000;	%	NG
2	0.0	0.0	3	0.2	198.860000	0.000000;	%	COW
2	0.0	0.0	3	0.2	198.860000	0.000000;	%	NG
2	0.0	0.0	3	0.2	198.860000	0.000000;	%	NG
2	0.0	0.0	3	0.2	198.860000	0.000000;	%	NG
2	0.0	0.0	3	0.2	198.860000	0.000000;	%	NG
2	0.0	0.0	3	0.2	198.860000	0.000000;	%	COW
2	0.0	0.0	3	0.2	198.860000	0.000000;	%	COW
2	0.0	0.0	3	0.2	198.860000	0.000000;	%	NG
2	0.0	0.0	3	0.2	198.860000	0.000000;	%	COW
2	0.0	0.0	3	0.2	198.860000	0.000000;	%	NG
2	0.0	0.0	3	0.2	198.860000	0.000000;	%	PEL
2	0.0	0.0	3	0.2	198.860000	0.000000;	%	COW
2	0.0	0.0	3	0.2	198.860000	0.000000;	%	COW
2	0.0	0.0	3	0.2	198.860000	0.000000;	%	COW
2	0.0	0.0	3	0.2	198.860000	0.000000;	%	NG
2	0.0	0.0	3	0.2	198.860000	0.000000;	%	NG
2	0.0	0.0	3	0.2	198.860000	0.000000;	%	PEL
2	0.0	0.0	3	0.2	198.860000	0.000000;	%	COW
2	0.0	0.0	3	0.2	198.860000	0.000000;	%	COW
2	0.0	0.0	3	0.2	198.860000	0.000000;	%	COW
2	0.0	0.0	3	0.2	198.860000	0.000000;	%	NG
2	0.0	0.0	3	0.2	198.860000	0.000000;	%	NG
2	0.0	0.0	3	0.2	198.860000	0.000000;	%	NG
2	0.0	0.0	3	0.2	198.860000	0.000000;	%	NG
2	0.0	0.0	3	0.2	198.860000	0.000000;	%	NG
2	0.0	0.0	3	0.2	198.860000	0.000000;	%	NG
2	0.0	0.0	3	0.2	198.860000	0.000000;	%	COW
2	0.0	0.0	3	0.2	198.860000	0.000000;	%	PEL
2	0.0	0.0	3	0.2	198.860000	0.000000;	%	NG
2	0.0	0.0	3	0.2	198.860000	0.000000;	%	NG
2	0.0	0.0	3	0.2	198.860000	0.000000;	%	NG
2	0.0	0.0	3	0.2	198.860000	0.000000;	%	PEL
2	0.0	0.0	3	0.2	198.860000	0.000000;	%	COW
2	0.0	0.0	3	0.2	198.860000	0.000000;	%	PEL
2	0.0	0.0	3	0.2	198.860000	0.000000;	%	NG
2	0.0	0.0	3	0.2	198.860000	0.000000;	%	NG
2	0.0	0.0	3	0.2	198.860000	0.000000;	%	NG
2	0.0	0.0	3	0.2	158.610000	0.000000;	%	NG
2	0.0	0.0	3	0.2	158.610000	0.000000;	%	NG
2	0.0	0.0	3	0.2	107.030000	0.000000;	%	NG
2	0.0	0.0	3	0.2	107.030000	0.000000;	%	NG
2	0.0	0.0	3	0.2	107.030000	0.000000;	%	NG
2	0.0	0.0	3	0.2	107.030000	0.000000;	%	NG
2	0.0	0.0	3	0.2	107.030000	0.000000;	%	NG
2	0.0	0.0	3	0.2	107.030000	0.000000;	%	COW
2	0.0	0.0	3	0.2	107.030000	0.000000;	%	NG
2	0.0	0.0	3	0.2	107.030000	0.000000;	%	NG
2	0.0	0.0	3	0.2	107.030000	0.000000;	%	COW
2	0.0	0.0	3	0.2	107.030000	0.000000;	%	NG
2	0.0	0.0	3	0.2	107.030000	0.000000;	%	NG
2	0.0	0.0	3	0.2	143.520000	0.000000;	%	NG
2	0.0	0.0	3	0.2	143.520000	0.000000;	%	NG
2	0.0	0.0	3	0.2	143.520000	0.000000;	%	NG
2	0.0	0.0	3	0.2	143.520000	0.000000;	%	NG
2	0.0	0.0	3	0.2	143.520000	0.000000;	%	NG
2	0.0	0.0	3	0.2	143.520000	0.000000;	%	NG
2	0.0	0.0	3	0.2	143.520000	0.000000;	%	COW
2	0.0	0.0	3	0.2	143.520000	0.000000;	%	COW
2	0.0	0.0	3	0.2	148.160000	0.000000;	%	NG
2	0.0	0.0	3	0.2	148.160000	0.000000;	%	NG
2	0.0	0.0	3	0.2	148.160000	0.000000;	%	NG
2	0.0	0.0	3	0.2	148.160000	0.000000;	%	NG
2	0.0	0.0	3	0.2	148.160000	0.000000;	%	NG
2	0.0	0.0	3	0.2	148.160000	0.000000;	%	COW
2	0.0	0.0	3	0.2	148.160000	0.000000;	%	NG
	2	 0.0	 0.0	 3	   0.000000	   0.000000	   0.000000; % COW
2	0.0	0.0	3	0.2	134.040000	0.000000;	%	NG
2	0.0	0.0	3	0.2	134.040000	0.000000;	%	NG
2	0.0	0.0	3	0.2	134.040000	0.000000;	%	COW
2	0.0	0.0	3	0.2	134.040000	0.000000;	%	NG
2	0.0	0.0	3	0.2	134.040000	0.000000;	%	NG
2	0.0	0.0	3	0.2	126.620000	0.000000;	%	NG
2	0.0	0.0	3	0.2	126.620000	0.000000;	%	NG
	2	 0.0	 0.0	 3	   0.000000	   0.000000	   0.000000; % NG
	2	 0.0	 0.0	 3	   0.000000	   0.000000	   0.000000; % PEL
2	0.0	0.0	3	0.2	130.490000	0.000000;	%	NG
2	0.0	0.0	3	0.2	130.490000	0.000000;	%	NG
2	0.0	0.0	3	0.2	132.330000	0.000000;	%	COW
2	0.0	0.0	3	0.2	132.330000	0.000000;	%	NG
2	0.0	0.0	3	0.2	136.590000	0.000000;	%	COW
2	0.0	0.0	3	0.2	136.590000	0.000000;	%	NG
2	0.0	0.0	3	0.2	139.960000	0.000000;	%	COW
2	0.0	0.0	3	0.2	128.210000	0.000000;	%	NG
2	0.0	0.0	3	0.2	128.210000	0.000000;	%	NG
2	0.0	0.0	3	0.2	128.210000	0.000000;	%	NG
2	0.0	0.0	3	0.2	128.210000	0.000000;	%	NG
2	0.0	0.0	3	0.2	128.210000	0.000000;	%	NG
2	0.0	0.0	3	0.2	137.400000	0.000000;	%	NG
2	0.0	0.0	3	0.2	137.400000	0.000000;	%	NG
2	0.0	0.0	3	0.2	137.400000	0.000000;	%	NG
2	0.0	0.0	3	0.2	137.400000	0.000000;	%	NG
2	0.0	0.0	3	0.2	129.990000	0.000000;	%	NG
2	0.0	0.0	3	0.2	129.990000	0.000000;	%	COW
2	0.0	0.0	3	0.2	129.990000	0.000000;	%	COW
2	0.0	0.0	3	0.2	135.600000	0.000000;	%	NG
2	0.0	0.0	3	0.2	135.600000	0.000000;	%	NG
2	0.0	0.0	3	0.2	135.600000	0.000000;	%	NG
2	0.0	0.0	3	0.2	163.160000	0.000000;	%	NG
2	0.0	0.0	3	0.2	163.160000	0.000000;	%	NG
2	0.0	0.0	3	0.2	163.160000	0.000000;	%	NG
2	0.0	0.0	3	0.2	163.160000	0.000000;	%	NG
2	0.0	0.0	3	0.2	163.160000	0.000000;	%	NG
2	0.0	0.0	3	0.2	163.160000	0.000000;	%	COW
2	0.0	0.0	3	0.2	163.160000	0.000000;	%	NG
2	0.0	0.0	3	0.2	139.010000	0.000000;	%	NG
2	0.0	0.0	3	0.2	139.010000	0.000000;	%	NG
2	0.0	0.0	3	0.2	139.010000	0.000000;	%	NG
2	0.0	0.0	3	0.2	139.010000	0.000000;	%	NG
2	0.0	0.0	3	0.2	139.010000	0.000000;	%	NG
2	0.0	0.0	3	0.2	139.010000	0.000000;	%	NG
2	0.0	0.0	3	0.2	139.010000	0.000000;	%	NG
2	0.0	0.0	3	0.2	139.010000	0.000000;	%	NG
2	0.0	0.0	3	0.2	125.480000	0.000000;	%	NG
2	0.0	0.0	3	0.2	125.480000	0.000000;	%	COW
2	0.0	0.0	3	0.2	125.480000	0.000000;	%	NG
2	0.0	0.0	3	0.2	125.480000	0.000000;	%	NG
2	0.0	0.0	3	0.2	125.480000	0.000000;	%	COW
2	0.0	0.0	3	0.2	137.400000	0.000000;	%	NG
2	0.0	0.0	3	0.2	137.400000	0.000000;	%	NG
2	0.0	0.0	3	0.2	137.400000	0.000000;	%	NG
2	0.0	0.0	3	0.2	137.400000	0.000000;	%	COW
2	0.0	0.0	3	0.2	137.400000	0.000000;	%	NG
	2	 0.0	 0.0	 3	   0.000000	   0.000000	   0.000000; % NG
	2	 0.0	 0.0	 3	   0.000000	   0.000000	   0.000000; % NG
	2	 0.0	 0.0	 3	   0.000000	   0.000000	   0.000000; % NG
	2	 0.0	 0.0	 3	   0.000000	   0.000000	   0.000000; % NG
	2	 0.0	 0.0	 3	   0.000000	   0.000000	   0.000000; % COW
	2	 0.0	 0.0	 3	   0.000000	   0.000000	   0.000000; % PEL
	2	 0.0	 0.0	 3	   0.000000	   0.000000	   0.000000; % PEL
	2	 0.0	 0.0	 3	   0.000000	   0.000000	   0.000000; % PEL
	2	 0.0	 0.0	 3	   0.000000	   0.000000	   0.000000; % COW
	2	 0.0	 0.0	 3	   0.000000	   0.000000	   0.000000; % PEL
	2	 0.0	 0.0	 3	   0.000000	   0.000000	   0.000000; % COW
	2	 0.0	 0.0	 3	   0.000000	   0.000000	   0.000000; % NG
	2	 0.0	 0.0	 3	   0.000000	   0.000000	   0.000000; % NG
2	0.0	0.0	3	0.2	107.030000	0.000000;	%	COW
	2	 0.0	 0.0	 3	   0.000000	   0.000000	   0.000000; % NG
	2	 0.0	 0.0	 3	   0.000000	   0.000000	   0.000000; % NG
	2	 0.0	 0.0	 3	   0.000000	   0.000000	   0.000000; % PEL
	2	 0.0	 0.0	 3	   0.000000	   0.000000	   0.000000; % PEL
	2	 0.0	 0.0	 3	   0.000000	   0.000000	   0.000000; % PEL
	2	 0.0	 0.0	 3	   0.000000	   0.000000	   0.000000; % PEL
	2	 0.0	 0.0	 3	   0.000000	   0.000000	   0.000000; % PEL
...
];

%% storage data
%	bus	energy	energy_rating	charge_rating	discharge_rating	thermal_rating	qmin	qmax	r	x	standby_loss	status
mpc.storage = [
	10284	0.0	0.0	1.00	1684.0500	842.0250	606.2580	0.9	0.85	1000	-1000	1000	0.1	0.01	0	0	1;
	10082	0.0	0.0	1.00	1414.8000	707.4000	509.3280	0.9	0.85	1000	-1000	1000	0.1	0.01	0	0	1;
	10277	0.0	0.0	1.00	925.2000	462.6000	333.0720	0.9	0.85	1000	-1000	1000	0.1	0.01	0	0	1;
	10097	0.0	0.0	1.00	901.5000	450.7500	324.5400	0.9	0.85	1000	-1000	1000	0.1	0.01	0	0	1;
	10273	0.0	0.0	1.00	811.5000	405.7500	292.1400	0.9	0.85	1000	-1000	1000	0.1	0.01	0	0	1;
	10098	0.0	0.0	1.00	790.5000	395.2500	284.5800	0.9	0.85	1000	-1000	1000	0.1	0.01	0	0	1;
	10233	0.0	0.0	1.00	770.5500	385.2750	277.3980	0.9	0.85	1000	-1000	1000	0.1	0.01	0	0	1;
	10096	0.0	0.0	1.00	732.0000	366.0000	263.5200	0.9	0.85	1000	-1000	1000	0.1	0.01	0	0	1;
	10234	0.0	0.0	1.00	683.1000	341.5500	245.9160	0.9	0.85	1000	-1000	1000	0.1	0.01	0	0	1;
	10238	0.0	0.0	1.00	592.5000	296.2500	213.3000	0.9	0.85	1000	-1000	1000	0.1	0.01	0	0	1;
	10228	0.0	0.0	1.00	582.3000	291.1500	209.6280	0.9	0.85	1000	-1000	1000	0.1	0.01	0	0	1;
	10271	0.0	0.0	1.00	577.9500	288.9750	208.0620	0.9	0.85	1000	-1000	1000	0.1	0.01	0	0	1;
	10179	0.0	0.0	1.00	569.2500	284.6250	204.9300	0.9	0.85	1000	-1000	1000	0.1	0.01	0	0	1;
	10174	0.0	0.0	1.00	557.2500	278.6250	200.6100	0.9	0.85	1000	-1000	1000	0.1	0.01	0	0	1;
	10292	0.0	0.0	1.00	547.2000	273.6000	196.9920	0.9	0.85	1000	-1000	1000	0.1	0.01	0	0	1;
	10282	0.0	0.0	1.00	545.8500	272.9250	196.5060	0.9	0.85	1000	-1000	1000	0.1	0.01	0	0	1;
	10239	0.0	0.0	1.00	516.6000	258.3000	185.9760	0.9	0.85	1000	-1000	1000	0.1	0.01	0	0	1;
	10295	0.0	0.0	1.00	516.6000	258.3000	185.9760	0.9	0.85	1000	-1000	1000	0.1	0.01	0	0	1;
	10299	0.0	0.0	1.00	471.0000	235.5000	169.5600	0.9	0.85	1000	-1000	1000	0.1	0.01	0	0	1;
	10199	0.0	0.0	1.00	462.0000	231.0000	166.3200	0.9	0.85	1000	-1000	1000	0.1	0.01	0	0	1;
	10078	0.0	0.0	1.00	458.2500	229.1250	164.9700	0.9	0.85	1000	-1000	1000	0.1	0.01	0	0	1;
	10355	0.0	0.0	1.00	450.0000	225.0000	162.0000	0.9	0.85	1000	-1000	1000	0.1	0.01	0	0	1;
	10266	0.0	0.0	1.00	448.0500	224.0250	161.2980	0.9	0.85	1000	-1000	1000	0.1	0.01	0	0	1;
	10358	0.0	0.0	1.00	444.0000	222.0000	159.8400	0.9	0.85	1000	-1000	1000	0.1	0.01	0	0	1;
	10197	0.0	0.0	1.00	442.5000	221.2500	159.3000	0.9	0.85	1000	-1000	1000	0.1	0.01	0	0	1;
	10086	0.0	0.0	1.00	432.9000	216.4500	155.8440	0.9	0.85	1000	-1000	1000	0.1	0.01	0	0	1;
	10296	0.0	0.0	1.00	412.9500	206.4750	148.6620	0.9	0.85	1000	-1000	1000	0.1	0.01	0	0	1;
	10269	0.0	0.0	1.00	412.8000	206.4000	148.6080	0.9	0.85	1000	-1000	1000	0.1	0.01	0	0	1;
	10090	0.0	0.0	1.00	411.6000	205.8000	148.1760	0.9	0.85	1000	-1000	1000	0.1	0.01	0	0	1;
	10361	0.0	0.0	1.00	397.5000	198.7500	143.1000	0.9	0.85	1000	-1000	1000	0.1	0.01	0	0	1;
	10291	0.0	0.0	1.00	397.0500	198.5250	142.9380	0.9	0.85	1000	-1000	1000	0.1	0.01	0	0	1;
	10236	0.0	0.0	1.00	391.2000	195.6000	140.8320	0.9	0.85	1000	-1000	1000	0.1	0.01	0	0	1;
	10274	0.0	0.0	1.00	384.4500	192.2250	138.4020	0.9	0.85	1000	-1000	1000	0.1	0.01	0	0	1;
	10172	0.0	0.0	1.00	371.1000	185.5500	133.5960	0.9	0.85	1000	-1000	1000	0.1	0.01	0	0	1;
	10173	0.0	0.0	1.00	371.1000	185.5500	133.5960	0.9	0.85	1000	-1000	1000	0.1	0.01	0	0	1;
	10360	0.0	0.0	1.00	360.0000	180.0000	129.6000	0.9	0.85	1000	-1000	1000	0.1	0.01	0	0	1;
	10227	0.0	0.0	1.00	351.7500	175.8750	126.6300	0.9	0.85	1000	-1000	1000	0.1	0.01	0	0	1;
	10305	0.0	0.0	1.00	348.0000	174.0000	125.2800	0.9	0.85	1000	-1000	1000	0.1	0.01	0	0	1;
	10334	0.0	0.0	1.00	315.0000	157.5000	113.4000	0.9	0.85	1000	-1000	1000	0.1	0.01	0	0	1;
	10210	0.0	0.0	1.00	306.0000	153.0000	110.1600	0.9	0.85	1000	-1000	1000	0.1	0.01	0	0	1;
	10104	0.0	0.0	1.00	300.3000	150.1500	108.1080	0.9	0.85	1000	-1000	1000	0.1	0.01	0	0	1;
	10237	0.0	0.0	1.00	299.1000	149.5500	107.6760	0.9	0.85	1000	-1000	1000	0.1	0.01	0	0	1;
	10267	0.0	0.0	1.00	297.6000	148.8000	107.1360	0.9	0.85	1000	-1000	1000	0.1	0.01	0	0	1;
	10288	0.0	0.0	1.00	296.2500	148.1250	106.6500	0.9	0.85	1000	-1000	1000	0.1	0.01	0	0	1;
	10225	0.0	0.0	1.00	293.5500	146.7750	105.6780	0.9	0.85	1000	-1000	1000	0.1	0.01	0	0	1;
	10232	0.0	0.0	1.00	293.5500	146.7750	105.6780	0.9	0.85	1000	-1000	1000	0.1	0.01	0	0	1;
	10231	0.0	0.0	1.00	291.6000	145.8000	104.9760	0.9	0.85	1000	-1000	1000	0.1	0.01	0	0	1;
	10324	0.0	0.0	1.00	285.0000	142.5000	102.6000	0.9	0.85	1000	-1000	1000	0.1	0.01	0	0	1;
	10213	0.0	0.0	1.00	283.5000	141.7500	102.0600	0.9	0.85	1000	-1000	1000	0.1	0.01	0	0	1;
	10321	0.0	0.0	1.00	283.5000	141.7500	102.0600	0.9	0.85	1000	-1000	1000	0.1	0.01	0	0	1;
	10245	0.0	0.0	1.00	278.1000	139.0500	100.1160	0.9	0.85	1000	-1000	1000	0.1	0.01	0	0	1;
	10351	0.0	0.0	1.00	271.5000	135.7500	97.7400	0.9	0.85	1000	-1000	1000	0.1	0.01	0	0	1;
	10326	0.0	0.0	1.00	255.6000	127.8000	92.0160	0.9	0.85	1000	-1000	1000	0.1	0.01	0	0	1;
	10204	0.0	0.0	1.00	255.0000	127.5000	91.8000	0.9	0.85	1000	-1000	1000	0.1	0.01	0	0	1;
	10276	0.0	0.0	1.00	246.6000	123.3000	88.7760	0.9	0.85	1000	-1000	1000	0.1	0.01	0	0	1;
	10297	0.0	0.0	1.00	245.4000	122.7000	88.3440	0.9	0.85	1000	-1000	1000	0.1	0.01	0	0	1;
	10085	0.0	0.0	1.00	242.4000	121.2000	87.2640	0.9	0.85	1000	-1000	1000	0.1	0.01	0	0	1;
	10303	0.0	0.0	1.00	242.2500	121.1250	87.2100	0.9	0.85	1000	-1000	1000	0.1	0.01	0	0	1;
	10304	0.0	0.0	1.00	242.2500	121.1250	87.2100	0.9	0.85	1000	-1000	1000	0.1	0.01	0	0	1;
	10302	0.0	0.0	1.00	241.5000	120.7500	86.9400	0.9	0.85	1000	-1000	1000	0.1	0.01	0	0	1;
	10344	0.0	0.0	1.00	235.5000	117.7500	84.7800	0.9	0.85	1000	-1000	1000	0.1	0.01	0	0	1;
	10285	0.0	0.0	1.00	233.5500	116.7750	84.0780	0.9	0.85	1000	-1000	1000	0.1	0.01	0	0	1;
	10205	0.0	0.0	1.00	231.0000	115.5000	83.1600	0.9	0.85	1000	-1000	1000	0.1	0.01	0	0	1;
	10206	0.0	0.0	1.00	225.0000	112.5000	81.0000	0.9	0.85	1000	-1000	1000	0.1	0.01	0	0	1;
	10280	0.0	0.0	1.00	224.7000	112.3500	80.8920	0.9	0.85	1000	-1000	1000	0.1	0.01	0	0	1;
	74	0.0	0.0	1.00	224.5500	112.2750	80.8380	0.9	0.85	1000	-1000	1000	0.1	0.01	0	0	1;
	10290	0.0	0.0	1.00	223.3500	111.6750	80.4060	0.9	0.85	1000	-1000	1000	0.1	0.01	0	0	1;
	2810	0.0	0.0	1.00	221.4000	110.7000	79.7040	0.9	0.85	1000	-1000	1000	0.1	0.01	0	0	1;
	10339	0.0	0.0	1.00	220.5000	110.2500	79.3800	0.9	0.85	1000	-1000	1000	0.1	0.01	0	0	1;
	10340	0.0	0.0	1.00	220.5000	110.2500	79.3800	0.9	0.85	1000	-1000	1000	0.1	0.01	0	0	1;
	10306	0.0	0.0	1.00	214.5000	107.2500	77.2200	0.9	0.85	1000	-1000	1000	0.1	0.01	0	0	1;
	10211	0.0	0.0	1.00	213.0000	106.5000	76.6800	0.9	0.85	1000	-1000	1000	0.1	0.01	0	0	1;
	10226	0.0	0.0	1.00	212.8500	106.4250	76.6260	0.9	0.85	1000	-1000	1000	0.1	0.01	0	0	1;
	10312	0.0	0.0	1.00	202.5000	101.2500	72.9000	0.9	0.85	1000	-1000	1000	0.1	0.01	0	0	1;
	10330	0.0	0.0	1.00	200.2500	100.1250	72.0900	0.9	0.85	1000	-1000	1000	0.1	0.01	0	0	1;
	10331	0.0	0.0	1.00	200.2500	100.1250	72.0900	0.9	0.85	1000	-1000	1000	0.1	0.01	0	0	1;
	10333	0.0	0.0	1.00	187.5000	93.7500	67.5000	0.9	0.85	1000	-1000	1000	0.1	0.01	0	0	1;
	10289	0.0	0.0	1.00	186.9000	93.4500	67.2840	0.9	0.85	1000	-1000	1000	0.1	0.01	0	0	1;
	10309	0.0	0.0	1.00	186.0000	93.0000	66.9600	0.9	0.85	1000	-1000	1000	0.1	0.01	0	0	1;
	10332	0.0	0.0	1.00	181.5000	90.7500	65.3400	0.9	0.85	1000	-1000	1000	0.1	0.01	0	0	1;
	10102	0.0	0.0	1.00	180.0000	90.0000	64.8000	0.9	0.85	1000	-1000	1000	0.1	0.01	0	0	1;
	10268	0.0	0.0	1.00	172.2000	86.1000	61.9920	0.9	0.85	1000	-1000	1000	0.1	0.01	0	0	1;
	10207	0.0	0.0	1.00	169.5000	84.7500	61.0200	0.9	0.85	1000	-1000	1000	0.1	0.01	0	0	1;
	10307	0.0	0.0	1.00	167.2500	83.6250	60.2100	0.9	0.85	1000	-1000	1000	0.1	0.01	0	0	1;
	10308	0.0	0.0	1.00	167.2500	83.6250	60.2100	0.9	0.85	1000	-1000	1000	0.1	0.01	0	0	1;
	10315	0.0	0.0	1.00	165.0000	82.5000	59.4000	0.9	0.85	1000	-1000	1000	0.1	0.01	0	0	1;
	10316	0.0	0.0	1.00	165.0000	82.5000	59.4000	0.9	0.85	1000	-1000	1000	0.1	0.01	0	0	1;
	1354	0.0	0.0	1.00	164.2500	82.1250	59.1300	0.9	0.85	1000	-1000	1000	0.1	0.01	0	0	1;
	10350	0.0	0.0	1.00	163.5000	81.7500	58.8600	0.9	0.85	1000	-1000	1000	0.1	0.01	0	0	1;
	10182	0.0	0.0	1.00	160.8000	80.4000	57.8880	0.9	0.85	1000	-1000	1000	0.1	0.01	0	0	1;
	10301	0.0	0.0	1.00	160.5000	80.2500	57.7800	0.9	0.85	1000	-1000	1000	0.1	0.01	0	0	1;
	10343	0.0	0.0	1.00	160.5000	80.2500	57.7800	0.9	0.85	1000	-1000	1000	0.1	0.01	0	0	1;
	10281	0.0	0.0	1.00	159.0000	79.5000	57.2400	0.9	0.85	1000	-1000	1000	0.1	0.01	0	0	1;
	10327	0.0	0.0	1.00	159.0000	79.5000	57.2400	0.9	0.85	1000	-1000	1000	0.1	0.01	0	0	1;
	2943	0.0	0.0	1.00	158.7000	79.3500	57.1320	0.9	0.85	1000	-1000	1000	0.1	0.01	0	0	1;
	10272	0.0	0.0	1.00	156.1500	78.0750	56.2140	0.9	0.85	1000	-1000	1000	0.1	0.01	0	0	1;
	10202	0.0	0.0	1.00	154.5000	77.2500	55.6200	0.9	0.85	1000	-1000	1000	0.1	0.01	0	0	1;
	2267	0.0	0.0	1.00	153.7500	76.8750	55.3500	0.9	0.85	1000	-1000	1000	0.1	0.01	0	0	1;
	10348	0.0	0.0	1.00	153.0000	76.5000	55.0800	0.9	0.85	1000	-1000	1000	0.1	0.01	0	0	1;
	10349	0.0	0.0	1.00	153.0000	76.5000	55.0800	0.9	0.85	1000	-1000	1000	0.1	0.01	0	0	1;
	10317	0.0	0.0	1.00	150.0000	75.0000	54.0000	0.9	0.85	1000	-1000	1000	0.1	0.01	0	0	1;
	10083	0.0	0.0	1.00	145.5000	72.7500	52.3800	0.9	0.85	1000	-1000	1000	0.1	0.01	0	0	1;
	10345	0.0	0.0	1.00	142.5000	71.2500	51.3000	0.9	0.85	1000	-1000	1000	0.1	0.01	0	0	1;
	10091	0.0	0.0	1.00	141.3000	70.6500	50.8680	0.9	0.85	1000	-1000	1000	0.1	0.01	0	0	1;
	457	0.0	0.0	1.00	141.3000	70.6500	50.8680	0.9	0.85	1000	-1000	1000	0.1	0.01	0	0	1;
	10328	0.0	0.0	1.00	141.0000	70.5000	50.7600	0.9	0.85	1000	-1000	1000	0.1	0.01	0	0	1;
	10329	0.0	0.0	1.00	141.0000	70.5000	50.7600	0.9	0.85	1000	-1000	1000	0.1	0.01	0	0	1;
	10319	0.0	0.0	1.00	139.5000	69.7500	50.2200	0.9	0.85	1000	-1000	1000	0.1	0.01	0	0	1;
	10298	0.0	0.0	1.00	136.0500	68.0250	48.9780	0.9	0.85	1000	-1000	1000	0.1	0.01	0	0	1;
	1470	0.0	0.0	1.00	135.7500	67.8750	48.8700	0.9	0.85	1000	-1000	1000	0.1	0.01	0	0	1;
	10217	0.0	0.0	1.00	132.0000	66.0000	47.5200	0.9	0.85	1000	-1000	1000	0.1	0.01	0	0	1;
	10183	0.0	0.0	1.00	129.0000	64.5000	46.4400	0.9	0.85	1000	-1000	1000	0.1	0.01	0	0	1;
	10337	0.0	0.0	1.00	127.5000	63.7500	45.9000	0.9	0.85	1000	-1000	1000	0.1	0.01	0	0	1;
	10338	0.0	0.0	1.00	127.5000	63.7500	45.9000	0.9	0.85	1000	-1000	1000	0.1	0.01	0	0	1;
	10229	0.0	0.0	1.00	127.0500	63.5250	45.7380	0.9	0.85	1000	-1000	1000	0.1	0.01	0	0	1;
	10212	0.0	0.0	1.00	124.5000	62.2500	44.8200	0.9	0.85	1000	-1000	1000	0.1	0.01	0	0	1;
	10121	0.0	0.0	1.00	120.0000	60.0000	43.2000	0.9	0.85	1000	-1000	1000	0.1	0.01	0	0	1;
	10154	0.0	0.0	1.00	120.0000	60.0000	43.2000	0.9	0.85	1000	-1000	1000	0.1	0.01	0	0	1;
	10261	0.0	0.0	1.00	120.0000	60.0000	43.2000	0.9	0.85	1000	-1000	1000	0.1	0.01	0	0	1;
	10262	0.0	0.0	1.00	120.0000	60.0000	43.2000	0.9	0.85	1000	-1000	1000	0.1	0.01	0	0	1;
	10357	0.0	0.0	1.00	118.5000	59.2500	42.6600	0.9	0.85	1000	-1000	1000	0.1	0.01	0	0	1;
	10322	0.0	0.0	1.00	117.7500	58.8750	42.3900	0.9	0.85	1000	-1000	1000	0.1	0.01	0	0	1;
	10323	0.0	0.0	1.00	117.7500	58.8750	42.3900	0.9	0.85	1000	-1000	1000	0.1	0.01	0	0	1;
	458	0.0	0.0	1.00	116.8500	58.4250	42.0660	0.9	0.85	1000	-1000	1000	0.1	0.01	0	0	1;
	10180	0.0	0.0	1.00	110.4000	55.2000	39.7440	0.9	0.85	1000	-1000	1000	0.1	0.01	0	0	1;
	10181	0.0	0.0	1.00	110.4000	55.2000	39.7440	0.9	0.85	1000	-1000	1000	0.1	0.01	0	0	1;
	126	0.0	0.0	1.00	107.2500	53.6250	38.6100	0.9	0.85	1000	-1000	1000	0.1	0.01	0	0	1;
	10184	0.0	0.0	1.00	105.0000	52.5000	37.8000	0.9	0.85	1000	-1000	1000	0.1	0.01	0	0	1;
	10346	0.0	0.0	1.00	101.2500	50.6250	36.4500	0.9	0.85	1000	-1000	1000	0.1	0.01	0	0	1;
	10347	0.0	0.0	1.00	101.2500	50.6250	36.4500	0.9	0.85	1000	-1000	1000	0.1	0.01	0	0	1;
	2665	0.0	0.0	1.00	98.4000	49.2000	35.4240	0.9	0.85	1000	-1000	1000	0.1	0.01	0	0	1;
	1056	0.0	0.0	1.00	97.9500	48.9750	35.2620	0.9	0.85	1000	-1000	1000	0.1	0.01	0	0	1;
	10208	0.0	0.0	1.00	97.5000	48.7500	35.1000	0.9	0.85	1000	-1000	1000	0.1	0.01	0	0	1;
	3004	0.0	0.0	1.00	97.5000	48.7500	35.1000	0.9	0.85	1000	-1000	1000	0.1	0.01	0	0	1;
	1357	0.0	0.0	1.00	94.9500	47.4750	34.1820	0.9	0.85	1000	-1000	1000	0.1	0.01	0	0	1;
	10335	0.0	0.0	1.00	93.0000	46.5000	33.4800	0.9	0.85	1000	-1000	1000	0.1	0.01	0	0	1;
	10336	0.0	0.0	1.00	93.0000	46.5000	33.4800	0.9	0.85	1000	-1000	1000	0.1	0.01	0	0	1;
	10353	0.0	0.0	1.00	93.0000	46.5000	33.4800	0.9	0.85	1000	-1000	1000	0.1	0.01	0	0	1;
	10354	0.0	0.0	1.00	93.0000	46.5000	33.4800	0.9	0.85	1000	-1000	1000	0.1	0.01	0	0	1;
	10235	0.0	0.0	1.00	92.7000	46.3500	33.3720	0.9	0.85	1000	-1000	1000	0.1	0.01	0	0	1;
	10270	0.0	0.0	1.00	92.7000	46.3500	33.3720	0.9	0.85	1000	-1000	1000	0.1	0.01	0	0	1;
	40	0.0	0.0	1.00	90.4500	45.2250	32.5620	0.9	0.85	1000	-1000	1000	0.1	0.01	0	0	1;
	41	0.0	0.0	1.00	90.4500	45.2250	32.5620	0.9	0.85	1000	-1000	1000	0.1	0.01	0	0	1;
	10209	0.0	0.0	1.00	90.0000	45.0000	32.4000	0.9	0.85	1000	-1000	1000	0.1	0.01	0	0	1;
	671	0.0	0.0	1.00	82.9500	41.4750	29.8620	0.9	0.85	1000	-1000	1000	0.1	0.01	0	0	1;
	10293	0.0	0.0	1.00	81.9000	40.9500	29.4840	0.9	0.85	1000	-1000	1000	0.1	0.01	0	0	1;
	38	0.0	0.0	1.00	81.7500	40.8750	29.4300	0.9	0.85	1000	-1000	1000	0.1	0.01	0	0	1;
	58	0.0	0.0	1.00	81.4500	40.7250	29.3220	0.9	0.85	1000	-1000	1000	0.1	0.01	0	0	1;
	670	0.0	0.0	1.00	79.9500	39.9750	28.7820	0.9	0.85	1000	-1000	1000	0.1	0.01	0	0	1;
	1408	0.0	0.0	1.00	79.5000	39.7500	28.6200	0.9	0.85	1000	-1000	1000	0.1	0.01	0	0	1;
	10178	0.0	0.0	1.00	78.7500	39.3750	28.3500	0.9	0.85	1000	-1000	1000	0.1	0.01	0	0	1;
	411	0.0	0.0	1.00	77.8500	38.9250	28.0260	0.9	0.85	1000	-1000	1000	0.1	0.01	0	0	1;
	2674	0.0	0.0	1.00	76.0500	38.0250	27.3780	0.9	0.85	1000	-1000	1000	0.1	0.01	0	0	1;
	2350	0.0	0.0	1.00	75.6000	37.8000	27.2160	0.9	0.85	1000	-1000	1000	0.1	0.01	0	0	1;
	10222	0.0	0.0	1.00	75.0000	37.5000	27.0000	0.9	0.85	1000	-1000	1000	0.1	0.01	0	0	1;
	3001	0.0	0.0	1.00	75.0000	37.5000	27.0000	0.9	0.85	1000	-1000	1000	0.1	0.01	0	0	1;
	3002	0.0	0.0	1.00	75.0000	37.5000	27.0000	0.9	0.85	1000	-1000	1000	0.1	0.01	0	0	1;
	383	0.0	0.0	1.00	74.1000	37.0500	26.6760	0.9	0.85	1000	-1000	1000	0.1	0.01	0	0	1;
	37	0.0	0.0	1.00	73.0500	36.5250	26.2980	0.9	0.85	1000	-1000	1000	0.1	0.01	0	0	1;
	692	0.0	0.0	1.00	72.6000	36.3000	26.1360	0.9	0.85	1000	-1000	1000	0.1	0.01	0	0	1;
	2336	0.0	0.0	1.00	72.6000	36.3000	26.1360	0.9	0.85	1000	-1000	1000	0.1	0.01	0	0	1;
	2515	0.0	0.0	1.00	72.3000	36.1500	26.0280	0.9	0.85	1000	-1000	1000	0.1	0.01	0	0	1;
	701	0.0	0.0	1.00	67.8000	33.9000	24.4080	0.9	0.85	1000	-1000	1000	0.1	0.01	0	0	1;
	103	0.0	0.0	1.00	67.6500	33.8250	24.3540	0.9	0.85	1000	-1000	1000	0.1	0.01	0	0	1;
	455	0.0	0.0	1.00	67.6500	33.8250	24.3540	0.9	0.85	1000	-1000	1000	0.1	0.01	0	0	1;
	2803	0.0	0.0	1.00	67.6500	33.8250	24.3540	0.9	0.85	1000	-1000	1000	0.1	0.01	0	0	1;
	10260	0.0	0.0	1.00	67.5000	33.7500	24.3000	0.9	0.85	1000	-1000	1000	0.1	0.01	0	0	1;
	10352	0.0	0.0	1.00	67.5000	33.7500	24.3000	0.9	0.85	1000	-1000	1000	0.1	0.01	0	0	1;
	1381	0.0	0.0	1.00	66.3000	33.1500	23.8680	0.9	0.85	1000	-1000	1000	0.1	0.01	0	0	1;
	1382	0.0	0.0	1.00	66.3000	33.1500	23.8680	0.9	0.85	1000	-1000	1000	0.1	0.01	0	0	1;
	10341	0.0	0.0	1.00	66.0000	33.0000	23.7600	0.9	0.85	1000	-1000	1000	0.1	0.01	0	0	1;
	323	0.0	0.0	1.00	66.0000	33.0000	23.7600	0.9	0.85	1000	-1000	1000	0.1	0.01	0	0	1;
	922	0.0	0.0	1.00	64.5000	32.2500	23.2200	0.9	0.85	1000	-1000	1000	0.1	0.01	0	0	1;
	927	0.0	0.0	1.00	64.5000	32.2500	23.2200	0.9	0.85	1000	-1000	1000	0.1	0.01	0	0	1;
	10325	0.0	0.0	1.00	63.9000	31.9500	23.0040	0.9	0.85	1000	-1000	1000	0.1	0.01	0	0	1;
	2377	0.0	0.0	1.00	63.4500	31.7250	22.8420	0.9	0.85	1000	-1000	1000	0.1	0.01	0	0	1;
	95	0.0	0.0	1.00	63.3000	31.6500	22.7880	0.9	0.85	1000	-1000	1000	0.1	0.01	0	0	1;
	2750	0.0	0.0	1.00	62.2500	31.1250	22.4100	0.9	0.85	1000	-1000	1000	0.1	0.01	0	0	1;
	145	0.0	0.0	1.00	61.5000	30.7500	22.1400	0.9	0.85	1000	-1000	1000	0.1	0.01	0	0	1;
	2984	0.0	0.0	1.00	61.3500	30.6750	22.0860	0.9	0.85	1000	-1000	1000	0.1	0.01	0	0	1;
	2337	0.0	0.0	1.00	61.2000	30.6000	22.0320	0.9	0.85	1000	-1000	1000	0.1	0.01	0	0	1;
	2150	0.0	0.0	1.00	60.7500	30.3750	21.8700	0.9	0.85	1000	-1000	1000	0.1	0.01	0	0	1;
	2356	0.0	0.0	1.00	60.0000	30.0000	21.6000	0.9	0.85	1000	-1000	1000	0.1	0.01	0	0	1;
	1570	0.0	0.0	1.00	59.5500	29.7750	21.4380	0.9	0.85	1000	-1000	1000	0.1	0.01	0	0	1;
	2582	0.0	0.0	1.00	59.4000	29.7000	21.3840	0.9	0.85	1000	-1000	1000	0.1	0.01	0	0	1;
	2172	0.0	0.0	1.00	58.5000	29.2500	21.0600	0.9	0.85	1000	-1000	1000	0.1	0.01	0	0	1;
	499	0.0	0.0	1.00	58.2000	29.1000	20.9520	0.9	0.85	1000	-1000	1000	0.1	0.01	0	0	1;
	334	0.0	0.0	1.00	57.6000	28.8000	20.7360	0.9	0.85	1000	-1000	1000	0.1	0.01	0	0	1;
	193	0.0	0.0	1.00	57.3000	28.6500	20.6280	0.9	0.85	1000	-1000	1000	0.1	0.01	0	0	1;
	2593	0.0	0.0	1.00	56.8500	28.4250	20.4660	0.9	0.85	1000	-1000	1000	0.1	0.01	0	0	1;
	837	0.0	0.0	1.00	56.5500	28.2750	20.3580	0.9	0.85	1000	-1000	1000	0.1	0.01	0	0	1;
	849	0.0	0.0	1.00	56.5500	28.2750	20.3580	0.9	0.85	1000	-1000	1000	0.1	0.01	0	0	1;
	630	0.0	0.0	1.00	55.9500	27.9750	20.1420	0.9	0.85	1000	-1000	1000	0.1	0.01	0	0	1;
	2094	0.0	0.0	1.00	55.6500	27.8250	20.0340	0.9	0.85	1000	-1000	1000	0.1	0.01	0	0	1;
	10318	0.0	0.0	1.00	55.5000	27.7500	19.9800	0.9	0.85	1000	-1000	1000	0.1	0.01	0	0	1;
	1409	0.0	0.0	1.00	55.3500	27.6750	19.9260	0.9	0.85	1000	-1000	1000	0.1	0.01	0	0	1;
	558	0.0	0.0	1.00	55.0500	27.5250	19.8180	0.9	0.85	1000	-1000	1000	0.1	0.01	0	0	1;
	1595	0.0	0.0	1.00	54.7500	27.3750	19.7100	0.9	0.85	1000	-1000	1000	0.1	0.01	0	0	1;
	2264	0.0	0.0	1.00	54.0000	27.0000	19.4400	0.9	0.85	1000	-1000	1000	0.1	0.01	0	0	1;
	2673	0.0	0.0	1.00	54.0000	27.0000	19.4400	0.9	0.85	1000	-1000	1000	0.1	0.01	0	0	1;
...
];

%% branch data
%	fbus	tbus	r	x	b	rateA	rateB	rateC	ratio	angle	status	angmin	angmax
mpc.branch = [
	10330	 10331	 1e-05	 8e-05	 0.0	 183	 183	 183	 0.0	 0.0	 1	 -30.0	 30.0;
	10300	 10355	 0.05932	 0.20245	 0.0	 122	 122	 122	 0.0	 0.0	 1	 -30.0	 30.0;
	10300	 10360	 0.02058	 0.05185	 0.0	 106	 106	 106	 0.0	 0.0	 1	 -30.0	 30.0;
	10367	 10201	 2e-05	 -0.04958	 0.0	 659	 659	 659	 0.999	 0.0	 1	 -30.0	 30.0;
	10367	 10202	 6e-05	 0.08346	 0.0	 391	 391	 391	 0.99999	 0.0	 1	 -30.0	 30.0;
...